DPC0001
     RDKit          2D

  8  8  0  0  0  0  0  0  0  0999 V2000
    3.0000    0.0000    0.0000 F   0  0  0  0  0  0  0  0  0  0  0  0
    1.5000    0.0000    0.0000 C   0  0  0  0  0  0  0  0  0  0  0  0
    0.7500   -1.2990    0.0000 C   0  0  0  0  0  0  0  0  0  0  0  0
   -0.7500   -1.2990    0.0000 C   0  0  0  0  0  0  0  0  0  0  0  0
   -1.5000    0.0000    0.0000 C   0  0  0  0  0  0  0  0  0  0  0  0
   -3.0000    0.0000    0.0000 F   0  0  0  0  0  0  0  0  0  0  0  0
   -0.7500    1.2990    0.0000 C   0  0  0  0  0  0  0  0  0  0  0  0
    0.7500    1.2990    0.0000 C   0  0  0  0  0  0  0  0  0  0  0  0
  1  2  1  0
  2  3  1  0
  3  4  2  0
  4  5  1  0
  5  6  1  0
  5  7  2  0
  7  8  1  0
  8  2  2  0
M  END
>  <compound_id>  (1) 
DPC0001

>  <smiles>  (1) 
Fc1ccc(F)cc1

>  <patent_id>  (1) 
DEMO-101-A1

>  <assignee>  (1) 
Northstar Therapeutics

>  <publication_date>  (1) 
2022-03-17

>  <year>  (1) 
2022

>  <series>  (1) 
phenyl

>  <assay_id>  (1) 
ASSAY-01-02

>  <standard_relation>  (1) 
=

>  <pIC50>  (1) 
5.54

>  <project_note>  (1) 
primary measurement

>  <source_row>  (1) 
1

>  <status>  (1) 
accepted

>  <duplicate_group_size>  (1) 
2

>  <source_rows>  (1) 
1 | 235

>  <patent_ids>  (1) 
DEMO-101-A1 | DEMO-104-A1

>  <assignees>  (1) 
Mosaic Medicines | Northstar Therapeutics

>  <molecular_weight>  (1) 
114.094

>  <clogp>  (1) 
1.965

>  <tpsa>  (1) 
0.0

>  <hbd>  (1) 
0

>  <hba>  (1) 
0

>  <rotatable_bonds>  (1) 
0

>  <heavy_atoms>  (1) 
8

>  <rings>  (1) 
1

>  <pIC50_median>  (1) 
5.75

>  <n_measurements>  (1) 
2.0

>  <murcko_scaffold>  (1) 
c1ccccc1

>  <scaffold_id>  (1) 
S001

>  <cluster_id>  (1) 
C020

$$$$
DPC0002
     RDKit          2D

  8  8  0  0  0  0  0  0  0  0999 V2000
    3.0000    0.0000    0.0000 F   0  0  0  0  0  0  0  0  0  0  0  0
    1.5000    0.0000    0.0000 C   0  0  0  0  0  0  0  0  0  0  0  0
    0.7500   -1.2990    0.0000 C   0  0  0  0  0  0  0  0  0  0  0  0
   -0.7500   -1.2990    0.0000 C   0  0  0  0  0  0  0  0  0  0  0  0
   -1.5000    0.0000    0.0000 C   0  0  0  0  0  0  0  0  0  0  0  0
   -3.0000    0.0000    0.0000 Cl  0  0  0  0  0  0  0  0  0  0  0  0
   -0.7500    1.2990    0.0000 C   0  0  0  0  0  0  0  0  0  0  0  0
    0.7500    1.2990    0.0000 C   0  0  0  0  0  0  0  0  0  0  0  0
  1  2  1  0
  2  3  1  0
  3  4  2  0
  4  5  1  0
  5  6  1  0
  5  7  2  0
  7  8  1  0
  8  2  2  0
M  END
>  <compound_id>  (2) 
DPC0002

>  <smiles>  (2) 
Fc1ccc(Cl)cc1

>  <patent_id>  (2) 
DEMO-101-A1

>  <assignee>  (2) 
Northstar Therapeutics

>  <publication_date>  (2) 
2022-03-17

>  <year>  (2) 
2022

>  <series>  (2) 
phenyl

>  <assay_id>  (2) 
ASSAY-01-03

>  <standard_relation>  (2) 
=

>  <pIC50>  (2) 
5.72

>  <project_note>  (2) 
primary measurement

>  <source_row>  (2) 
2

>  <status>  (2) 
accepted

>  <duplicate_group_size>  (2) 
2

>  <source_rows>  (2) 
2 | 236

>  <patent_ids>  (2) 
DEMO-101-A1 | DEMO-104-A1

>  <assignees>  (2) 
Mosaic Medicines | Northstar Therapeutics

>  <molecular_weight>  (2) 
130.549

>  <clogp>  (2) 
2.479

>  <tpsa>  (2) 
0.0

>  <hbd>  (2) 
0

>  <hba>  (2) 
0

>  <rotatable_bonds>  (2) 
0

>  <heavy_atoms>  (2) 
8

>  <rings>  (2) 
1

>  <pIC50_median>  (2) 
5.885

>  <n_measurements>  (2) 
2.0

>  <murcko_scaffold>  (2) 
c1ccccc1

>  <scaffold_id>  (2) 
S001

>  <cluster_id>  (2) 
C019

$$$$
DPC0003
     RDKit          2D

  8  8  0  0  0  0  0  0  0  0999 V2000
    3.0000    0.0000    0.0000 F   0  0  0  0  0  0  0  0  0  0  0  0
    1.5000    0.0000    0.0000 C   0  0  0  0  0  0  0  0  0  0  0  0
    0.7500   -1.2990    0.0000 C   0  0  0  0  0  0  0  0  0  0  0  0
   -0.7500   -1.2990    0.0000 C   0  0  0  0  0  0  0  0  0  0  0  0
   -1.5000    0.0000    0.0000 C   0  0  0  0  0  0  0  0  0  0  0  0
   -3.0000    0.0000    0.0000 Br  0  0  0  0  0  0  0  0  0  0  0  0
   -0.7500    1.2990    0.0000 C   0  0  0  0  0  0  0  0  0  0  0  0
    0.7500    1.2990    0.0000 C   0  0  0  0  0  0  0  0  0  0  0  0
  1  2  1  0
  2  3  1  0
  3  4  2  0
  4  5  1  0
  5  6  1  0
  5  7  2  0
  7  8  1  0
  8  2  2  0
M  END
>  <compound_id>  (3) 
DPC0003

>  <smiles>  (3) 
Fc1ccc(Br)cc1

>  <patent_id>  (3) 
DEMO-101-A1

>  <assignee>  (3) 
Northstar Therapeutics

>  <publication_date>  (3) 
2022-03-17

>  <year>  (3) 
2022

>  <series>  (3) 
phenyl

>  <assay_id>  (3) 
ASSAY-01-04

>  <standard_relation>  (3) 
=

>  <pIC50>  (3) 
5.64

>  <project_note>  (3) 
primary measurement

>  <source_row>  (3) 
3

>  <status>  (3) 
accepted

>  <duplicate_group_size>  (3) 
2

>  <source_rows>  (3) 
3 | 237

>  <patent_ids>  (3) 
DEMO-101-A1 | DEMO-104-A1

>  <assignees>  (3) 
Mosaic Medicines | Northstar Therapeutics

>  <molecular_weight>  (3) 
175.0

>  <clogp>  (3) 
2.588

>  <tpsa>  (3) 
0.0

>  <hbd>  (3) 
0

>  <hba>  (3) 
0

>  <rotatable_bonds>  (3) 
0

>  <heavy_atoms>  (3) 
8

>  <rings>  (3) 
1

>  <pIC50_median>  (3) 
5.79

>  <n_measurements>  (3) 
2.0

>  <murcko_scaffold>  (3) 
c1ccccc1

>  <scaffold_id>  (3) 
S001

>  <cluster_id>  (3) 
C018

$$$$
DPC0004
     RDKit          2D

  8  8  0  0  0  0  0  0  0  0999 V2000
    3.0000    0.0000    0.0000 C   0  0  0  0  0  0  0  0  0  0  0  0
    1.5000    0.0000    0.0000 C   0  0  0  0  0  0  0  0  0  0  0  0
    0.7500   -1.2990    0.0000 C   0  0  0  0  0  0  0  0  0  0  0  0
   -0.7500   -1.2990    0.0000 C   0  0  0  0  0  0  0  0  0  0  0  0
   -1.5000    0.0000    0.0000 C   0  0  0  0  0  0  0  0  0  0  0  0
   -3.0000    0.0000    0.0000 F   0  0  0  0  0  0  0  0  0  0  0  0
   -0.7500    1.2990    0.0000 C   0  0  0  0  0  0  0  0  0  0  0  0
    0.7500    1.2990    0.0000 C   0  0  0  0  0  0  0  0  0  0  0  0
  1  2  1  0
  2  3  1  0
  3  4  2  0
  4  5  1  0
  5  6  1  0
  5  7  2  0
  7  8  1  0
  8  2  2  0
M  END
>  <compound_id>  (4) 
DPC0004

>  <smiles>  (4) 
Cc1ccc(F)cc1

>  <patent_id>  (4) 
DEMO-101-A1

>  <assignee>  (4) 
Northstar Therapeutics

>  <publication_date>  (4) 
2022-03-17

>  <year>  (4) 
2022

>  <series>  (4) 
phenyl

>  <assay_id>  (4) 
ASSAY-01-05

>  <standard_relation>  (4) 
=

>  <pIC50>  (4) 
5.45

>  <project_note>  (4) 
primary measurement

>  <source_row>  (4) 
4

>  <status>  (4) 
accepted

>  <duplicate_group_size>  (4) 
2

>  <source_rows>  (4) 
4 | 238

>  <patent_ids>  (4) 
DEMO-101-A1 | DEMO-104-A1

>  <assignees>  (4) 
Mosaic Medicines | Northstar Therapeutics

>  <molecular_weight>  (4) 
110.131

>  <clogp>  (4) 
2.134

>  <tpsa>  (4) 
0.0

>  <hbd>  (4) 
0

>  <hba>  (4) 
0

>  <rotatable_bonds>  (4) 
0

>  <heavy_atoms>  (4) 
8

>  <rings>  (4) 
1

>  <pIC50_median>  (4) 
5.62

>  <n_measurements>  (4) 
2.0

>  <murcko_scaffold>  (4) 
c1ccccc1

>  <scaffold_id>  (4) 
S001

>  <cluster_id>  (4) 
C017

$$$$
DPC0005
     RDKit          2D

  9  9  0  0  0  0  0  0  0  0999 V2000
    3.7500   -1.2990    0.0000 C   0  0  0  0  0  0  0  0  0  0  0  0
    3.0000    0.0000    0.0000 C   0  0  0  0  0  0  0  0  0  0  0  0
    1.5000    0.0000    0.0000 C   0  0  0  0  0  0  0  0  0  0  0  0
    0.7500   -1.2990    0.0000 C   0  0  0  0  0  0  0  0  0  0  0  0
   -0.7500   -1.2990    0.0000 C   0  0  0  0  0  0  0  0  0  0  0  0
   -1.5000    0.0000    0.0000 C   0  0  0  0  0  0  0  0  0  0  0  0
   -3.0000    0.0000    0.0000 F   0  0  0  0  0  0  0  0  0  0  0  0
   -0.7500    1.2990    0.0000 C   0  0  0  0  0  0  0  0  0  0  0  0
    0.7500    1.2990    0.0000 C   0  0  0  0  0  0  0  0  0  0  0  0
  1  2  1  0
  2  3  1  0
  3  4  1  0
  4  5  2  0
  5  6  1  0
  6  7  1  0
  6  8  2  0
  8  9  1  0
  9  3  2  0
M  END
>  <compound_id>  (5) 
DPC0005

>  <smiles>  (5) 
CCc1ccc(F)cc1

>  <patent_id>  (5) 
DEMO-101-A1

>  <assignee>  (5) 
Northstar Therapeutics

>  <publication_date>  (5) 
2022-03-17

>  <year>  (5) 
2022

>  <series>  (5) 
phenyl

>  <assay_id>  (5) 
ASSAY-01-06

>  <standard_relation>  (5) 
=

>  <pIC50>  (5) 
5.39

>  <project_note>  (5) 
primary measurement

>  <source_row>  (5) 
5

>  <status>  (5) 
accepted

>  <duplicate_group_size>  (5) 
2

>  <source_rows>  (5) 
5 | 239

>  <patent_ids>  (5) 
DEMO-101-A1 | DEMO-104-A1

>  <assignees>  (5) 
Mosaic Medicines | Northstar Therapeutics

>  <molecular_weight>  (5) 
124.158

>  <clogp>  (5) 
2.388

>  <tpsa>  (5) 
0.0

>  <hbd>  (5) 
0

>  <hba>  (5) 
0

>  <rotatable_bonds>  (5) 
1

>  <heavy_atoms>  (5) 
9

>  <rings>  (5) 
1

>  <pIC50_median>  (5) 
5.63

>  <n_measurements>  (5) 
2.0

>  <murcko_scaffold>  (5) 
c1ccccc1

>  <scaffold_id>  (5) 
S001

>  <cluster_id>  (5) 
C005

$$$$
DPC0006
     RDKit          2D

 10 10  0  0  0  0  0  0  0  0999 V2000
    5.2500   -1.2990    0.0000 C   0  0  0  0  0  0  0  0  0  0  0  0
    3.7500   -1.2990    0.0000 C   0  0  0  0  0  0  0  0  0  0  0  0
    3.0000    0.0000    0.0000 C   0  0  0  0  0  0  0  0  0  0  0  0
    1.5000    0.0000    0.0000 C   0  0  0  0  0  0  0  0  0  0  0  0
    0.7500   -1.2990    0.0000 C   0  0  0  0  0  0  0  0  0  0  0  0
   -0.7500   -1.2990    0.0000 C   0  0  0  0  0  0  0  0  0  0  0  0
   -1.5000    0.0000    0.0000 C   0  0  0  0  0  0  0  0  0  0  0  0
   -3.0000    0.0000    0.0000 F   0  0  0  0  0  0  0  0  0  0  0  0
   -0.7500    1.2990    0.0000 C   0  0  0  0  0  0  0  0  0  0  0  0
    0.7500    1.2990    0.0000 C   0  0  0  0  0  0  0  0  0  0  0  0
  1  2  1  0
  2  3  1  0
  3  4  1  0
  4  5  1  0
  5  6  2  0
  6  7  1  0
  7  8  1  0
  7  9  2  0
  9 10  1  0
 10  4  2  0
M  END
>  <compound_id>  (6) 
DPC0006

>  <smiles>  (6) 
CCCc1ccc(F)cc1

>  <patent_id>  (6) 
DEMO-101-A1

>  <assignee>  (6) 
Northstar Therapeutics

>  <publication_date>  (6) 
2022-03-17

>  <year>  (6) 
2022

>  <series>  (6) 
phenyl

>  <assay_id>  (6) 
ASSAY-01-07

>  <standard_relation>  (6) 
=

>  <pIC50>  (6) 
5.24

>  <project_note>  (6) 
primary measurement

>  <source_row>  (6) 
6

>  <status>  (6) 
accepted

>  <duplicate_group_size>  (6) 
2

>  <source_rows>  (6) 
6 | 240

>  <patent_ids>  (6) 
DEMO-101-A1 | DEMO-104-A1

>  <assignees>  (6) 
Mosaic Medicines | Northstar Therapeutics

>  <molecular_weight>  (6) 
138.185

>  <clogp>  (6) 
2.778

>  <tpsa>  (6) 
0.0

>  <hbd>  (6) 
0

>  <hba>  (6) 
0

>  <rotatable_bonds>  (6) 
2

>  <heavy_atoms>  (6) 
10

>  <rings>  (6) 
1

>  <pIC50_median>  (6) 
5.5649999999999995

>  <n_measurements>  (6) 
2.0

>  <murcko_scaffold>  (6) 
c1ccccc1

>  <scaffold_id>  (6) 
S001

>  <cluster_id>  (6) 
C002

$$$$
DPC0007
     RDKit          2D

  9  9  0  0  0  0  0  0  0  0999 V2000
    3.7500   -1.2990    0.0000 C   0  0  0  0  0  0  0  0  0  0  0  0
    3.0000    0.0000    0.0000 O   0  0  0  0  0  0  0  0  0  0  0  0
    1.5000    0.0000    0.0000 C   0  0  0  0  0  0  0  0  0  0  0  0
    0.7500   -1.2990    0.0000 C   0  0  0  0  0  0  0  0  0  0  0  0
   -0.7500   -1.2990    0.0000 C   0  0  0  0  0  0  0  0  0  0  0  0
   -1.5000    0.0000    0.0000 C   0  0  0  0  0  0  0  0  0  0  0  0
   -3.0000    0.0000    0.0000 F   0  0  0  0  0  0  0  0  0  0  0  0
   -0.7500    1.2990    0.0000 C   0  0  0  0  0  0  0  0  0  0  0  0
    0.7500    1.2990    0.0000 C   0  0  0  0  0  0  0  0  0  0  0  0
  1  2  1  0
  2  3  1  0
  3  4  1  0
  4  5  2  0
  5  6  1  0
  6  7  1  0
  6  8  2  0
  8  9  1  0
  9  3  2  0
M  END
>  <compound_id>  (7) 
DPC0007

>  <smiles>  (7) 
COc1ccc(F)cc1

>  <patent_id>  (7) 
DEMO-101-A1

>  <assignee>  (7) 
Northstar Therapeutics

>  <publication_date>  (7) 
2022-03-17

>  <year>  (7) 
2022

>  <series>  (7) 
phenyl

>  <assay_id>  (7) 
ASSAY-01-08

>  <standard_relation>  (7) 
=

>  <pIC50>  (7) 
5.35

>  <project_note>  (7) 
primary measurement

>  <source_row>  (7) 
7

>  <status>  (7) 
accepted

>  <duplicate_group_size>  (7) 
1

>  <source_rows>  (7) 
7

>  <patent_ids>  (7) 
DEMO-101-A1

>  <assignees>  (7) 
Northstar Therapeutics

>  <molecular_weight>  (7) 
126.13

>  <clogp>  (7) 
1.834

>  <tpsa>  (7) 
9.23

>  <hbd>  (7) 
0

>  <hba>  (7) 
1

>  <rotatable_bonds>  (7) 
1

>  <heavy_atoms>  (7) 
9

>  <rings>  (7) 
1

>  <pIC50_median>  (7) 
5.35

>  <n_measurements>  (7) 
1.0

>  <murcko_scaffold>  (7) 
c1ccccc1

>  <scaffold_id>  (7) 
S001

>  <cluster_id>  (7) 
C004

$$$$
DPC0008
     RDKit          2D

 10 10  0  0  0  0  0  0  0  0999 V2000
    5.2500   -1.2990    0.0000 C   0  0  0  0  0  0  0  0  0  0  0  0
    3.7500   -1.2990    0.0000 C   0  0  0  0  0  0  0  0  0  0  0  0
    3.0000    0.0000    0.0000 O   0  0  0  0  0  0  0  0  0  0  0  0
    1.5000    0.0000    0.0000 C   0  0  0  0  0  0  0  0  0  0  0  0
    0.7500   -1.2990    0.0000 C   0  0  0  0  0  0  0  0  0  0  0  0
   -0.7500   -1.2990    0.0000 C   0  0  0  0  0  0  0  0  0  0  0  0
   -1.5000    0.0000    0.0000 C   0  0  0  0  0  0  0  0  0  0  0  0
   -3.0000    0.0000    0.0000 F   0  0  0  0  0  0  0  0  0  0  0  0
   -0.7500    1.2990    0.0000 C   0  0  0  0  0  0  0  0  0  0  0  0
    0.7500    1.2990    0.0000 C   0  0  0  0  0  0  0  0  0  0  0  0
  1  2  1  0
  2  3  1  0
  3  4  1  0
  4  5  1  0
  5  6  2  0
  6  7  1  0
  7  8  1  0
  7  9  2  0
  9 10  1  0
 10  4  2  0
M  END
>  <compound_id>  (8) 
DPC0008

>  <smiles>  (8) 
CCOc1ccc(F)cc1

>  <patent_id>  (8) 
DEMO-101-A1

>  <assignee>  (8) 
Northstar Therapeutics

>  <publication_date>  (8) 
2022-03-17

>  <year>  (8) 
2022

>  <series>  (8) 
phenyl

>  <assay_id>  (8) 
ASSAY-01-09

>  <standard_relation>  (8) 
=

>  <pIC50>  (8) 
5.47

>  <project_note>  (8) 
primary measurement

>  <source_row>  (8) 
8

>  <status>  (8) 
accepted

>  <duplicate_group_size>  (8) 
1

>  <source_rows>  (8) 
8

>  <patent_ids>  (8) 
DEMO-101-A1

>  <assignees>  (8) 
Northstar Therapeutics

>  <molecular_weight>  (8) 
140.157

>  <clogp>  (8) 
2.224

>  <tpsa>  (8) 
9.23

>  <hbd>  (8) 
0

>  <hba>  (8) 
1

>  <rotatable_bonds>  (8) 
2

>  <heavy_atoms>  (8) 
10

>  <rings>  (8) 
1

>  <pIC50_median>  (8) 
5.47

>  <n_measurements>  (8) 
1.0

>  <murcko_scaffold>  (8) 
c1ccccc1

>  <scaffold_id>  (8) 
S001

>  <cluster_id>  (8) 
C001

$$$$
DPC0009
     RDKit          2D

  8  8  0  0  0  0  0  0  0  0999 V2000
    3.0000    0.0000    0.0000 N   0  0  0  0  0  0  0  0  0  0  0  0
    1.5000    0.0000    0.0000 C   0  0  0  0  0  0  0  0  0  0  0  0
    0.7500   -1.2990    0.0000 C   0  0  0  0  0  0  0  0  0  0  0  0
   -0.7500   -1.2990    0.0000 C   0  0  0  0  0  0  0  0  0  0  0  0
   -1.5000    0.0000    0.0000 C   0  0  0  0  0  0  0  0  0  0  0  0
   -3.0000    0.0000    0.0000 F   0  0  0  0  0  0  0  0  0  0  0  0
   -0.7500    1.2990    0.0000 C   0  0  0  0  0  0  0  0  0  0  0  0
    0.7500    1.2990    0.0000 C   0  0  0  0  0  0  0  0  0  0  0  0
  1  2  1  0
  2  3  1  0
  3  4  2  0
  4  5  1  0
  5  6  1  0
  5  7  2  0
  7  8  1  0
  8  2  2  0
M  END
>  <compound_id>  (9) 
DPC0009

>  <smiles>  (9) 
Nc1ccc(F)cc1

>  <patent_id>  (9) 
DEMO-101-A1

>  <assignee>  (9) 
Northstar Therapeutics

>  <publication_date>  (9) 
2022-03-17

>  <year>  (9) 
2022

>  <series>  (9) 
phenyl

>  <assay_id>  (9) 
ASSAY-01-10

>  <standard_relation>  (9) 
=

>  <pIC50>  (9) 
5.48

>  <project_note>  (9) 
primary measurement

>  <source_row>  (9) 
9

>  <status>  (9) 
accepted

>  <duplicate_group_size>  (9) 
1

>  <source_rows>  (9) 
9

>  <patent_ids>  (9) 
DEMO-101-A1

>  <assignees>  (9) 
Northstar Therapeutics

>  <molecular_weight>  (9) 
111.119

>  <clogp>  (9) 
1.408

>  <tpsa>  (9) 
26.02

>  <hbd>  (9) 
1

>  <hba>  (9) 
1

>  <rotatable_bonds>  (9) 
0

>  <heavy_atoms>  (9) 
8

>  <rings>  (9) 
1

>  <pIC50_median>  (9) 
5.48

>  <n_measurements>  (9) 
1.0

>  <murcko_scaffold>  (9) 
c1ccccc1

>  <scaffold_id>  (9) 
S001

>  <cluster_id>  (9) 
C015

$$$$
DPC0010
     RDKit          2D

  9  9  0  0  0  0  0  0  0  0999 V2000
    3.7500   -1.2990    0.0000 C   0  0  0  0  0  0  0  0  0  0  0  0
    3.0000    0.0000    0.0000 N   0  0  0  0  0  0  0  0  0  0  0  0
    1.5000    0.0000    0.0000 C   0  0  0  0  0  0  0  0  0  0  0  0
    0.7500   -1.2990    0.0000 C   0  0  0  0  0  0  0  0  0  0  0  0
   -0.7500   -1.2990    0.0000 C   0  0  0  0  0  0  0  0  0  0  0  0
   -1.5000    0.0000    0.0000 C   0  0  0  0  0  0  0  0  0  0  0  0
   -3.0000    0.0000    0.0000 F   0  0  0  0  0  0  0  0  0  0  0  0
   -0.7500    1.2990    0.0000 C   0  0  0  0  0  0  0  0  0  0  0  0
    0.7500    1.2990    0.0000 C   0  0  0  0  0  0  0  0  0  0  0  0
  1  2  1  0
  2  3  1  0
  3  4  1  0
  4  5  2  0
  5  6  1  0
  6  7  1  0
  6  8  2  0
  8  9  1  0
  9  3  2  0
M  END
>  <compound_id>  (10) 
DPC0010

>  <smiles>  (10) 
CNc1ccc(F)cc1

>  <patent_id>  (10) 
DEMO-101-A1

>  <assignee>  (10) 
Northstar Therapeutics

>  <publication_date>  (10) 
2022-03-17

>  <year>  (10) 
2022

>  <series>  (10) 
phenyl

>  <assay_id>  (10) 
ASSAY-01-11

>  <standard_relation>  (10) 
=

>  <pIC50>  (10) 
5.65

>  <project_note>  (10) 
primary measurement

>  <source_row>  (10) 
10

>  <status>  (10) 
accepted

>  <duplicate_group_size>  (10) 
1

>  <source_rows>  (10) 
10

>  <patent_ids>  (10) 
DEMO-101-A1

>  <assignees>  (10) 
Northstar Therapeutics

>  <molecular_weight>  (10) 
125.146

>  <clogp>  (10) 
1.867

>  <tpsa>  (10) 
12.03

>  <hbd>  (10) 
1

>  <hba>  (10) 
1

>  <rotatable_bonds>  (10) 
1

>  <heavy_atoms>  (10) 
9

>  <rings>  (10) 
1

>  <pIC50_median>  (10) 
5.65

>  <n_measurements>  (10) 
1.0

>  <murcko_scaffold>  (10) 
c1ccccc1

>  <scaffold_id>  (10) 
S001

>  <cluster_id>  (10) 
C008

$$$$
DPC0011
     RDKit          2D

 10 10  0  0  0  0  0  0  0  0999 V2000
    3.7500   -1.2990    0.0000 C   0  0  0  0  0  0  0  0  0  0  0  0
    3.0000    0.0000    0.0000 N   0  0  0  0  0  0  0  0  0  0  0  0
    3.7500    1.2990    0.0000 C   0  0  0  0  0  0  0  0  0  0  0  0
    1.5000    0.0000    0.0000 C   0  0  0  0  0  0  0  0  0  0  0  0
    0.7500   -1.2990    0.0000 C   0  0  0  0  0  0  0  0  0  0  0  0
   -0.7500   -1.2990    0.0000 C   0  0  0  0  0  0  0  0  0  0  0  0
   -1.5000    0.0000    0.0000 C   0  0  0  0  0  0  0  0  0  0  0  0
   -3.0000    0.0000    0.0000 F   0  0  0  0  0  0  0  0  0  0  0  0
   -0.7500    1.2990    0.0000 C   0  0  0  0  0  0  0  0  0  0  0  0
    0.7500    1.2990    0.0000 C   0  0  0  0  0  0  0  0  0  0  0  0
  1  2  1  0
  2  3  1  0
  2  4  1  0
  4  5  1  0
  5  6  2  0
  6  7  1  0
  7  8  1  0
  7  9  2  0
  9 10  1  0
 10  4  2  0
M  END
>  <compound_id>  (11) 
DPC0011

>  <smiles>  (11) 
CN(C)c1ccc(F)cc1

>  <patent_id>  (11) 
DEMO-101-A1

>  <assignee>  (11) 
Northstar Therapeutics

>  <publication_date>  (11) 
2022-03-17

>  <year>  (11) 
2022

>  <series>  (11) 
phenyl

>  <assay_id>  (11) 
ASSAY-01-12

>  <standard_relation>  (11) 
=

>  <pIC50>  (11) 
5.75

>  <project_note>  (11) 
primary measurement

>  <source_row>  (11) 
11

>  <status>  (11) 
accepted

>  <duplicate_group_size>  (11) 
1

>  <source_rows>  (11) 
11

>  <patent_ids>  (11) 
DEMO-101-A1

>  <assignees>  (11) 
Northstar Therapeutics

>  <molecular_weight>  (11) 
139.173

>  <clogp>  (11) 
1.892

>  <tpsa>  (11) 
3.24

>  <hbd>  (11) 
0

>  <hba>  (11) 
1

>  <rotatable_bonds>  (11) 
1

>  <heavy_atoms>  (11) 
10

>  <rings>  (11) 
1

>  <pIC50_median>  (11) 
5.75

>  <n_measurements>  (11) 
1.0

>  <murcko_scaffold>  (11) 
c1ccccc1

>  <scaffold_id>  (11) 
S001

>  <cluster_id>  (11) 
C007

$$$$
DPC0012
     RDKit          2D

  9  9  0  0  0  0  0  0  0  0999 V2000
    4.5000    0.0000    0.0000 N   0  0  0  0  0  0  0  0  0  0  0  0
    3.0000    0.0000    0.0000 C   0  0  0  0  0  0  0  0  0  0  0  0
    1.5000    0.0000    0.0000 C   0  0  0  0  0  0  0  0  0  0  0  0
    0.7500   -1.2990    0.0000 C   0  0  0  0  0  0  0  0  0  0  0  0
   -0.7500   -1.2990    0.0000 C   0  0  0  0  0  0  0  0  0  0  0  0
   -1.5000    0.0000    0.0000 C   0  0  0  0  0  0  0  0  0  0  0  0
   -3.0000    0.0000    0.0000 F   0  0  0  0  0  0  0  0  0  0  0  0
   -0.7500    1.2990    0.0000 C   0  0  0  0  0  0  0  0  0  0  0  0
    0.7500    1.2990    0.0000 C   0  0  0  0  0  0  0  0  0  0  0  0
  1  2  3  0
  2  3  1  0
  3  4  1  0
  4  5  2  0
  5  6  1  0
  6  7  1  0
  6  8  2  0
  8  9  1  0
  9  3  2  0
M  END
>  <compound_id>  (12) 
DPC0012

>  <smiles>  (12) 
N#Cc1ccc(F)cc1

>  <patent_id>  (12) 
DEMO-101-A1

>  <assignee>  (12) 
Northstar Therapeutics

>  <publication_date>  (12) 
2022-03-17

>  <year>  (12) 
2022

>  <series>  (12) 
phenyl

>  <assay_id>  (12) 
ASSAY-01-01

>  <standard_relation>  (12) 
=

>  <pIC50>  (12) 
5.77

>  <project_note>  (12) 
primary measurement

>  <source_row>  (12) 
12

>  <status>  (12) 
accepted

>  <duplicate_group_size>  (12) 
1

>  <source_rows>  (12) 
12

>  <patent_ids>  (12) 
DEMO-101-A1

>  <assignees>  (12) 
Northstar Therapeutics

>  <molecular_weight>  (12) 
121.114

>  <clogp>  (12) 
1.697

>  <tpsa>  (12) 
23.79

>  <hbd>  (12) 
0

>  <hba>  (12) 
1

>  <rotatable_bonds>  (12) 
0

>  <heavy_atoms>  (12) 
9

>  <rings>  (12) 
1

>  <pIC50_median>  (12) 
5.77

>  <n_measurements>  (12) 
1.0

>  <murcko_scaffold>  (12) 
c1ccccc1

>  <scaffold_id>  (12) 
S001

>  <cluster_id>  (12) 
C009

$$$$
DPC0013
     RDKit          2D

 11 11  0  0  0  0  0  0  0  0999 V2000
    3.0000    0.0000    0.0000 F   0  0  0  0  0  0  0  0  0  0  0  0
    1.5000    0.0000    0.0000 C   0  0  0  0  0  0  0  0  0  0  0  0
    0.7500   -1.2990    0.0000 C   0  0  0  0  0  0  0  0  0  0  0  0
   -0.7500   -1.2990    0.0000 C   0  0  0  0  0  0  0  0  0  0  0  0
   -1.5000    0.0000    0.0000 C   0  0  0  0  0  0  0  0  0  0  0  0
   -3.0000    0.0000    0.0000 C   0  0  0  0  0  0  0  0  0  0  0  0
   -4.5000    0.0000    0.0000 F   0  0  0  0  0  0  0  0  0  0  0  0
   -3.0000    1.5000    0.0000 F   0  0  0  0  0  0  0  0  0  0  0  0
   -3.0000   -1.5000    0.0000 F   0  0  0  0  0  0  0  0  0  0  0  0
   -0.7500    1.2990    0.0000 C   0  0  0  0  0  0  0  0  0  0  0  0
    0.7500    1.2990    0.0000 C   0  0  0  0  0  0  0  0  0  0  0  0
  1  2  1  0
  2  3  1  0
  3  4  2  0
  4  5  1  0
  5  6  1  0
  6  7  1  0
  6  8  1  0
  6  9  1  0
  5 10  2  0
 10 11  1  0
 11  2  2  0
M  END
>  <compound_id>  (13) 
DPC0013

>  <smiles>  (13) 
Fc1ccc(C(F)(F)F)cc1

>  <patent_id>  (13) 
DEMO-101-A1

>  <assignee>  (13) 
Northstar Therapeutics

>  <publication_date>  (13) 
2022-03-17

>  <year>  (13) 
2022

>  <series>  (13) 
phenyl

>  <assay_id>  (13) 
ASSAY-01-02

>  <standard_relation>  (13) 
=

>  <pIC50>  (13) 
5.6

>  <project_note>  (13) 
primary measurement

>  <source_row>  (13) 
13

>  <status>  (13) 
accepted

>  <duplicate_group_size>  (13) 
1

>  <source_rows>  (13) 
13

>  <patent_ids>  (13) 
DEMO-101-A1

>  <assignees>  (13) 
Northstar Therapeutics

>  <molecular_weight>  (13) 
164.101

>  <clogp>  (13) 
2.845

>  <tpsa>  (13) 
0.0

>  <hbd>  (13) 
0

>  <hba>  (13) 
0

>  <rotatable_bonds>  (13) 
0

>  <heavy_atoms>  (13) 
11

>  <rings>  (13) 
1

>  <pIC50_median>  (13) 
5.6

>  <n_measurements>  (13) 
1.0

>  <murcko_scaffold>  (13) 
c1ccccc1

>  <scaffold_id>  (13) 
S001

>  <cluster_id>  (13) 
C006

$$$$
DPC0014
     RDKit          2D

 10 10  0  0  0  0  0  0  0  0999 V2000
    3.7500   -1.2990    0.0000 N   0  0  0  0  0  0  0  0  0  0  0  0
    3.0000    0.0000    0.0000 C   0  0  0  0  0  0  0  0  0  0  0  0
    3.7500    1.2990    0.0000 O   0  0  0  0  0  0  0  0  0  0  0  0
    1.5000    0.0000    0.0000 C   0  0  0  0  0  0  0  0  0  0  0  0
    0.7500   -1.2990    0.0000 C   0  0  0  0  0  0  0  0  0  0  0  0
   -0.7500   -1.2990    0.0000 C   0  0  0  0  0  0  0  0  0  0  0  0
   -1.5000    0.0000    0.0000 C   0  0  0  0  0  0  0  0  0  0  0  0
   -3.0000    0.0000    0.0000 F   0  0  0  0  0  0  0  0  0  0  0  0
   -0.7500    1.2990    0.0000 C   0  0  0  0  0  0  0  0  0  0  0  0
    0.7500    1.2990    0.0000 C   0  0  0  0  0  0  0  0  0  0  0  0
  1  2  1  0
  2  3  2  0
  2  4  1  0
  4  5  1  0
  5  6  2  0
  6  7  1  0
  7  8  1  0
  7  9  2  0
  9 10  1  0
 10  4  2  0
M  END
>  <compound_id>  (14) 
DPC0014

>  <smiles>  (14) 
NC(=O)c1ccc(F)cc1

>  <patent_id>  (14) 
DEMO-101-A1

>  <assignee>  (14) 
Northstar Therapeutics

>  <publication_date>  (14) 
2022-03-17

>  <year>  (14) 
2022

>  <series>  (14) 
phenyl

>  <assay_id>  (14) 
ASSAY-01-03

>  <standard_relation>  (14) 
=

>  <pIC50>  (14) 
5.46

>  <project_note>  (14) 
primary measurement

>  <source_row>  (14) 
14

>  <status>  (14) 
accepted

>  <duplicate_group_size>  (14) 
1

>  <source_rows>  (14) 
14

>  <patent_ids>  (14) 
DEMO-101-A1

>  <assignees>  (14) 
Northstar Therapeutics

>  <molecular_weight>  (14) 
139.129

>  <clogp>  (14) 
0.925

>  <tpsa>  (14) 
43.09

>  <hbd>  (14) 
1

>  <hba>  (14) 
1

>  <rotatable_bonds>  (14) 
1

>  <heavy_atoms>  (14) 
10

>  <rings>  (14) 
1

>  <pIC50_median>  (14) 
5.46

>  <n_measurements>  (14) 
1.0

>  <murcko_scaffold>  (14) 
c1ccccc1

>  <scaffold_id>  (14) 
S001

>  <cluster_id>  (14) 
C003

$$$$
DPC0015
     RDKit          2D

 11 11  0  0  0  0  0  0  0  0999 V2000
    5.2500   -1.2990    0.0000 C   0  0  0  0  0  0  0  0  0  0  0  0
    3.7500   -1.2990    0.0000 N   0  0  0  0  0  0  0  0  0  0  0  0
    3.0000    0.0000    0.0000 C   0  0  0  0  0  0  0  0  0  0  0  0
    3.7500    1.2990    0.0000 O   0  0  0  0  0  0  0  0  0  0  0  0
    1.5000    0.0000    0.0000 C   0  0  0  0  0  0  0  0  0  0  0  0
    0.7500   -1.2990    0.0000 C   0  0  0  0  0  0  0  0  0  0  0  0
   -0.7500   -1.2990    0.0000 C   0  0  0  0  0  0  0  0  0  0  0  0
   -1.5000    0.0000    0.0000 C   0  0  0  0  0  0  0  0  0  0  0  0
   -3.0000    0.0000    0.0000 F   0  0  0  0  0  0  0  0  0  0  0  0
   -0.7500    1.2990    0.0000 C   0  0  0  0  0  0  0  0  0  0  0  0
    0.7500    1.2990    0.0000 C   0  0  0  0  0  0  0  0  0  0  0  0
  1  2  1  0
  2  3  1  0
  3  4  2  0
  3  5  1  0
  5  6  1  0
  6  7  2  0
  7  8  1  0
  8  9  1  0
  8 10  2  0
 10 11  1  0
 11  5  2  0
M  END
>  <compound_id>  (15) 
DPC0015

>  <smiles>  (15) 
CNC(=O)c1ccc(F)cc1

>  <patent_id>  (15) 
DEMO-101-A1

>  <assignee>  (15) 
Northstar Therapeutics

>  <publication_date>  (15) 
2022-03-17

>  <year>  (15) 
2022

>  <series>  (15) 
phenyl

>  <assay_id>  (15) 
ASSAY-01-04

>  <standard_relation>  (15) 
=

>  <pIC50>  (15) 
5.5

>  <project_note>  (15) 
primary measurement

>  <source_row>  (15) 
15

>  <status>  (15) 
accepted

>  <duplicate_group_size>  (15) 
1

>  <source_rows>  (15) 
15

>  <patent_ids>  (15) 
DEMO-101-A1

>  <assignees>  (15) 
Northstar Therapeutics

>  <molecular_weight>  (15) 
153.156

>  <clogp>  (15) 
1.185

>  <tpsa>  (15) 
29.1

>  <hbd>  (15) 
1

>  <hba>  (15) 
1

>  <rotatable_bonds>  (15) 
1

>  <heavy_atoms>  (15) 
11

>  <rings>  (15) 
1

>  <pIC50_median>  (15) 
5.5

>  <n_measurements>  (15) 
1.0

>  <murcko_scaffold>  (15) 
c1ccccc1

>  <scaffold_id>  (15) 
S001

>  <cluster_id>  (15) 
C010

$$$$
DPC0016
     RDKit          2D

 11 11  0  0  0  0  0  0  0  0999 V2000
    4.5000    0.0000    0.0000 N   0  0  0  0  0  0  0  0  0  0  0  0
    3.0000    0.0000    0.0000 S   0  0  0  0  0  0  0  0  0  0  0  0
    3.0000   -1.5000    0.0000 O   0  0  0  0  0  0  0  0  0  0  0  0
    3.0000    1.5000    0.0000 O   0  0  0  0  0  0  0  0  0  0  0  0
    1.5000    0.0000    0.0000 C   0  0  0  0  0  0  0  0  0  0  0  0
    0.7500   -1.2990    0.0000 C   0  0  0  0  0  0  0  0  0  0  0  0
   -0.7500   -1.2990    0.0000 C   0  0  0  0  0  0  0  0  0  0  0  0
   -1.5000    0.0000    0.0000 C   0  0  0  0  0  0  0  0  0  0  0  0
   -3.0000    0.0000    0.0000 F   0  0  0  0  0  0  0  0  0  0  0  0
   -0.7500    1.2990    0.0000 C   0  0  0  0  0  0  0  0  0  0  0  0
    0.7500    1.2990    0.0000 C   0  0  0  0  0  0  0  0  0  0  0  0
  1  2  1  0
  2  3  2  0
  2  4  2  0
  2  5  1  0
  5  6  1  0
  6  7  2  0
  7  8  1  0
  8  9  1  0
  8 10  2  0
 10 11  1  0
 11  5  2  0
M  END
>  <compound_id>  (16) 
DPC0016

>  <smiles>  (16) 
NS(=O)(=O)c1ccc(F)cc1

>  <patent_id>  (16) 
DEMO-101-A1

>  <assignee>  (16) 
Northstar Therapeutics

>  <publication_date>  (16) 
2022-03-17

>  <year>  (16) 
2022

>  <series>  (16) 
phenyl

>  <assay_id>  (16) 
ASSAY-01-05

>  <standard_relation>  (16) 
=

>  <pIC50>  (16) 
5.45

>  <project_note>  (16) 
primary measurement

>  <source_row>  (16) 
16

>  <status>  (16) 
accepted

>  <duplicate_group_size>  (16) 
1

>  <source_rows>  (16) 
16

>  <patent_ids>  (16) 
DEMO-101-A1

>  <assignees>  (16) 
Northstar Therapeutics

>  <molecular_weight>  (16) 
175.184

>  <clogp>  (16) 
0.473

>  <tpsa>  (16) 
60.16

>  <hbd>  (16) 
1

>  <hba>  (16) 
2

>  <rotatable_bonds>  (16) 
1

>  <heavy_atoms>  (16) 
11

>  <rings>  (16) 
1

>  <pIC50_median>  (16) 
5.45

>  <n_measurements>  (16) 
1.0

>  <murcko_scaffold>  (16) 
c1ccccc1

>  <scaffold_id>  (16) 
S001

>  <cluster_id>  (16) 
C014

$$$$
DPC0017
     RDKit          2D

 12 12  0  0  0  0  0  0  0  0999 V2000
    3.0000    0.0000    0.0000 F   0  0  0  0  0  0  0  0  0  0  0  0
    1.5000    0.0000    0.0000 C   0  0  0  0  0  0  0  0  0  0  0  0
    0.7500   -1.2990    0.0000 C   0  0  0  0  0  0  0  0  0  0  0  0
   -0.7500   -1.2990    0.0000 C   0  0  0  0  0  0  0  0  0  0  0  0
   -1.5000    0.0000    0.0000 C   0  0  0  0  0  0  0  0  0  0  0  0
   -3.0000    0.0000    0.0000 O   0  0  0  0  0  0  0  0  0  0  0  0
   -3.7500    1.2990    0.0000 C   0  0  0  0  0  0  0  0  0  0  0  0
   -4.5000    2.5981    0.0000 F   0  0  0  0  0  0  0  0  0  0  0  0
   -5.0490    0.5490    0.0000 F   0  0  0  0  0  0  0  0  0  0  0  0
   -2.4510    2.0490    0.0000 F   0  0  0  0  0  0  0  0  0  0  0  0
   -0.7500    1.2990    0.0000 C   0  0  0  0  0  0  0  0  0  0  0  0
    0.7500    1.2990    0.0000 C   0  0  0  0  0  0  0  0  0  0  0  0
  1  2  1  0
  2  3  1  0
  3  4  2  0
  4  5  1  0
  5  6  1  0
  6  7  1  0
  7  8  1  0
  7  9  1  0
  7 10  1  0
  5 11  2  0
 11 12  1  0
 12  2  2  0
M  END
>  <compound_id>  (17) 
DPC0017

>  <smiles>  (17) 
Fc1ccc(OC(F)(F)F)cc1

>  <patent_id>  (17) 
DEMO-101-A1

>  <assignee>  (17) 
Northstar Therapeutics

>  <publication_date>  (17) 
2022-03-17

>  <year>  (17) 
2022

>  <series>  (17) 
phenyl

>  <assay_id>  (17) 
ASSAY-01-06

>  <standard_relation>  (17) 
=

>  <pIC50>  (17) 
5.6

>  <project_note>  (17) 
primary measurement

>  <source_row>  (17) 
17

>  <status>  (17) 
accepted

>  <duplicate_group_size>  (17) 
1

>  <source_rows>  (17) 
17

>  <patent_ids>  (17) 
DEMO-101-A1

>  <assignees>  (17) 
Northstar Therapeutics

>  <molecular_weight>  (17) 
180.1

>  <clogp>  (17) 
2.724

>  <tpsa>  (17) 
9.23

>  <hbd>  (17) 
0

>  <hba>  (17) 
1

>  <rotatable_bonds>  (17) 
1

>  <heavy_atoms>  (17) 
12

>  <rings>  (17) 
1

>  <pIC50_median>  (17) 
5.6

>  <n_measurements>  (17) 
1.0

>  <murcko_scaffold>  (17) 
c1ccccc1

>  <scaffold_id>  (17) 
S001

>  <cluster_id>  (17) 
C013

$$$$
DPC0018
     RDKit          2D

 13 14  0  0  0  0  0  0  0  0999 V2000
    3.0000    0.0000    0.0000 F   0  0  0  0  0  0  0  0  0  0  0  0
    1.5000    0.0000    0.0000 C   0  0  0  0  0  0  0  0  0  0  0  0
    0.7500   -1.2990    0.0000 C   0  0  0  0  0  0  0  0  0  0  0  0
   -0.7500   -1.2990    0.0000 C   0  0  0  0  0  0  0  0  0  0  0  0
   -1.5000    0.0000    0.0000 C   0  0  0  0  0  0  0  0  0  0  0  0
   -3.0000    0.0000    0.0000 N   0  0  0  0  0  0  0  0  0  0  0  0
   -3.7500    1.2990    0.0000 C   0  0  0  0  0  0  0  0  0  0  0  0
   -5.2500    1.2990    0.0000 C   0  0  0  0  0  0  0  0  0  0  0  0
   -6.0000    0.0000    0.0000 O   0  0  0  0  0  0  0  0  0  0  0  0
   -5.2500   -1.2990    0.0000 C   0  0  0  0  0  0  0  0  0  0  0  0
   -3.7500   -1.2990    0.0000 C   0  0  0  0  0  0  0  0  0  0  0  0
   -0.7500    1.2990    0.0000 C   0  0  0  0  0  0  0  0  0  0  0  0
    0.7500    1.2990    0.0000 C   0  0  0  0  0  0  0  0  0  0  0  0
  1  2  1  0
  2  3  1  0
  3  4  2  0
  4  5  1  0
  5  6  1  0
  6  7  1  0
  7  8  1  0
  8  9  1  0
  9 10  1  0
 10 11  1  0
  5 12  2  0
 12 13  1  0
 13  2  2  0
 11  6  1  0
M  END
>  <compound_id>  (18) 
DPC0018

>  <smiles>  (18) 
Fc1ccc(N2CCOCC2)cc1

>  <patent_id>  (18) 
DEMO-101-A1

>  <assignee>  (18) 
Northstar Therapeutics

>  <publication_date>  (18) 
2022-03-17

>  <year>  (18) 
2022

>  <series>  (18) 
phenyl

>  <assay_id>  (18) 
ASSAY-01-07

>  <standard_relation>  (18) 
=

>  <pIC50>  (18) 
5.95

>  <project_note>  (18) 
primary measurement

>  <source_row>  (18) 
18

>  <status>  (18) 
accepted

>  <duplicate_group_size>  (18) 
1

>  <source_rows>  (18) 
18

>  <patent_ids>  (18) 
DEMO-101-A1

>  <assignees>  (18) 
Northstar Therapeutics

>  <molecular_weight>  (18) 
181.21

>  <clogp>  (18) 
1.662

>  <tpsa>  (18) 
12.47

>  <hbd>  (18) 
0

>  <hba>  (18) 
2

>  <rotatable_bonds>  (18) 
1

>  <heavy_atoms>  (18) 
13

>  <rings>  (18) 
2

>  <pIC50_median>  (18) 
5.95

>  <n_measurements>  (18) 
1.0

>  <murcko_scaffold>  (18) 
c1ccc(N2CCOCC2)cc1

>  <scaffold_id>  (18) 
S002

>  <cluster_id>  (18) 
C011

$$$$
DPC0019
     RDKit          2D

 10 11  0  0  0  0  0  0  0  0999 V2000
    3.0000    0.0000    0.0000 F   0  0  0  0  0  0  0  0  0  0  0  0
    1.5000    0.0000    0.0000 C   0  0  0  0  0  0  0  0  0  0  0  0
    0.7500   -1.2990    0.0000 C   0  0  0  0  0  0  0  0  0  0  0  0
   -0.7500   -1.2990    0.0000 C   0  0  0  0  0  0  0  0  0  0  0  0
   -1.5000    0.0000    0.0000 C   0  0  0  0  0  0  0  0  0  0  0  0
   -3.0000    0.0000    0.0000 C   0  0  0  0  0  0  0  0  0  0  0  0
   -4.2990   -0.7500    0.0000 C   0  0  0  0  0  0  0  0  0  0  0  0
   -4.2990    0.7500    0.0000 C   0  0  0  0  0  0  0  0  0  0  0  0
   -0.7500    1.2990    0.0000 C   0  0  0  0  0  0  0  0  0  0  0  0
    0.7500    1.2990    0.0000 C   0  0  0  0  0  0  0  0  0  0  0  0
  1  2  1  0
  2  3  1  0
  3  4  2  0
  4  5  1  0
  5  6  1  0
  6  7  1  0
  7  8  1  0
  5  9  2  0
  9 10  1  0
 10  2  2  0
  8  6  1  0
M  END
>  <compound_id>  (19) 
DPC0019

>  <smiles>  (19) 
Fc1ccc(C2CC2)cc1

>  <patent_id>  (19) 
DEMO-101-A1

>  <assignee>  (19) 
Northstar Therapeutics

>  <publication_date>  (19) 
2022-03-17

>  <year>  (19) 
2022

>  <series>  (19) 
phenyl

>  <assay_id>  (19) 
ASSAY-01-08

>  <standard_relation>  (19) 
=

>  <pIC50>  (19) 
5.74

>  <project_note>  (19) 
primary measurement

>  <source_row>  (19) 
19

>  <status>  (19) 
accepted

>  <duplicate_group_size>  (19) 
1

>  <source_rows>  (19) 
19

>  <patent_ids>  (19) 
DEMO-101-A1

>  <assignees>  (19) 
Northstar Therapeutics

>  <molecular_weight>  (19) 
136.169

>  <clogp>  (19) 
2.703

>  <tpsa>  (19) 
0.0

>  <hbd>  (19) 
0

>  <hba>  (19) 
0

>  <rotatable_bonds>  (19) 
1

>  <heavy_atoms>  (19) 
10

>  <rings>  (19) 
2

>  <pIC50_median>  (19) 
5.74

>  <n_measurements>  (19) 
1.0

>  <murcko_scaffold>  (19) 
c1ccc(C2CC2)cc1

>  <scaffold_id>  (19) 
S003

>  <cluster_id>  (19) 
C038

$$$$
DPC0020
     RDKit          2D

 13 14  0  0  0  0  0  0  0  0999 V2000
    3.0000    0.0000    0.0000 F   0  0  0  0  0  0  0  0  0  0  0  0
    1.5000    0.0000    0.0000 C   0  0  0  0  0  0  0  0  0  0  0  0
    0.7500   -1.2990    0.0000 C   0  0  0  0  0  0  0  0  0  0  0  0
   -0.7500   -1.2990    0.0000 C   0  0  0  0  0  0  0  0  0  0  0  0
   -1.5000    0.0000    0.0000 C   0  0  0  0  0  0  0  0  0  0  0  0
   -3.0000    0.0000    0.0000 C   0  0  0  0  0  0  0  0  0  0  0  0
   -3.7500    1.2990    0.0000 C   0  0  0  0  0  0  0  0  0  0  0  0
   -5.2500    1.2990    0.0000 C   0  0  0  0  0  0  0  0  0  0  0  0
   -6.0000    0.0000    0.0000 C   0  0  0  0  0  0  0  0  0  0  0  0
   -5.2500   -1.2990    0.0000 C   0  0  0  0  0  0  0  0  0  0  0  0
   -3.7500   -1.2990    0.0000 C   0  0  0  0  0  0  0  0  0  0  0  0
   -0.7500    1.2990    0.0000 C   0  0  0  0  0  0  0  0  0  0  0  0
    0.7500    1.2990    0.0000 C   0  0  0  0  0  0  0  0  0  0  0  0
  1  2  1  0
  2  3  1  0
  3  4  2  0
  4  5  1  0
  5  6  1  0
  6  7  1  0
  7  8  1  0
  8  9  1  0
  9 10  1  0
 10 11  1  0
  5 12  2  0
 12 13  1  0
 13  2  2  0
 11  6  1  0
M  END
>  <compound_id>  (20) 
DPC0020

>  <smiles>  (20) 
Fc1ccc(C2CCCCC2)cc1

>  <patent_id>  (20) 
DEMO-101-A1

>  <assignee>  (20) 
Northstar Therapeutics

>  <publication_date>  (20) 
2022-03-17

>  <year>  (20) 
2022

>  <series>  (20) 
phenyl

>  <assay_id>  (20) 
ASSAY-01-09

>  <standard_relation>  (20) 
=

>  <pIC50>  (20) 
5.86

>  <project_note>  (20) 
primary measurement

>  <source_row>  (20) 
20

>  <status>  (20) 
accepted

>  <duplicate_group_size>  (20) 
1

>  <source_rows>  (20) 
20

>  <patent_ids>  (20) 
DEMO-101-A1

>  <assignees>  (20) 
Northstar Therapeutics

>  <molecular_weight>  (20) 
178.25

>  <clogp>  (20) 
3.873

>  <tpsa>  (20) 
0.0

>  <hbd>  (20) 
0

>  <hba>  (20) 
0

>  <rotatable_bonds>  (20) 
1

>  <heavy_atoms>  (20) 
13

>  <rings>  (20) 
2

>  <pIC50_median>  (20) 
5.86

>  <n_measurements>  (20) 
1.0

>  <murcko_scaffold>  (20) 
c1ccc(C2CCCCC2)cc1

>  <scaffold_id>  (20) 
S004

>  <cluster_id>  (20) 
C012

$$$$
DPC0021
     RDKit          2D

  8  8  0  0  0  0  0  0  0  0999 V2000
    3.0000    0.0000    0.0000 O   0  0  0  0  0  0  0  0  0  0  0  0
    1.5000    0.0000    0.0000 C   0  0  0  0  0  0  0  0  0  0  0  0
    0.7500   -1.2990    0.0000 C   0  0  0  0  0  0  0  0  0  0  0  0
   -0.7500   -1.2990    0.0000 C   0  0  0  0  0  0  0  0  0  0  0  0
   -1.5000    0.0000    0.0000 C   0  0  0  0  0  0  0  0  0  0  0  0
   -3.0000    0.0000    0.0000 F   0  0  0  0  0  0  0  0  0  0  0  0
   -0.7500    1.2990    0.0000 C   0  0  0  0  0  0  0  0  0  0  0  0
    0.7500    1.2990    0.0000 C   0  0  0  0  0  0  0  0  0  0  0  0
  1  2  1  0
  2  3  1  0
  3  4  2  0
  4  5  1  0
  5  6  1  0
  5  7  2  0
  7  8  1  0
  8  2  2  0
M  END
>  <compound_id>  (21) 
DPC0021

>  <smiles>  (21) 
Oc1ccc(F)cc1

>  <patent_id>  (21) 
DEMO-101-A1

>  <assignee>  (21) 
Northstar Therapeutics

>  <publication_date>  (21) 
2022-03-17

>  <year>  (21) 
2022

>  <series>  (21) 
phenyl

>  <assay_id>  (21) 
ASSAY-01-10

>  <standard_relation>  (21) 
=

>  <pIC50>  (21) 
5.58

>  <project_note>  (21) 
primary measurement

>  <source_row>  (21) 
21

>  <status>  (21) 
accepted

>  <duplicate_group_size>  (21) 
1

>  <source_rows>  (21) 
21

>  <patent_ids>  (21) 
DEMO-101-A1

>  <assignees>  (21) 
Northstar Therapeutics

>  <molecular_weight>  (21) 
112.103

>  <clogp>  (21) 
1.531

>  <tpsa>  (21) 
20.23

>  <hbd>  (21) 
1

>  <hba>  (21) 
1

>  <rotatable_bonds>  (21) 
0

>  <heavy_atoms>  (21) 
8

>  <rings>  (21) 
1

>  <pIC50_median>  (21) 
5.58

>  <n_measurements>  (21) 
1.0

>  <murcko_scaffold>  (21) 
c1ccccc1

>  <scaffold_id>  (21) 
S001

>  <cluster_id>  (21) 
C020

$$$$
DPC0022
     RDKit          2D

 10 10  0  0  0  0  0  0  0  0999 V2000
    3.7500    1.2990    0.0000 O   0  0  0  0  0  0  0  0  0  0  0  0
    3.0000    0.0000    0.0000 C   0  0  0  0  0  0  0  0  0  0  0  0
    3.7500   -1.2990    0.0000 O   0  0  0  0  0  0  0  0  0  0  0  0
    1.5000    0.0000    0.0000 C   0  0  0  0  0  0  0  0  0  0  0  0
    0.7500   -1.2990    0.0000 C   0  0  0  0  0  0  0  0  0  0  0  0
   -0.7500   -1.2990    0.0000 C   0  0  0  0  0  0  0  0  0  0  0  0
   -1.5000    0.0000    0.0000 C   0  0  0  0  0  0  0  0  0  0  0  0
   -3.0000    0.0000    0.0000 F   0  0  0  0  0  0  0  0  0  0  0  0
   -0.7500    1.2990    0.0000 C   0  0  0  0  0  0  0  0  0  0  0  0
    0.7500    1.2990    0.0000 C   0  0  0  0  0  0  0  0  0  0  0  0
  1  2  2  0
  2  3  1  0
  2  4  1  0
  4  5  1  0
  5  6  2  0
  6  7  1  0
  7  8  1  0
  7  9  2  0
  9 10  1  0
 10  4  2  0
M  END
>  <compound_id>  (22) 
DPC0022

>  <smiles>  (22) 
O=C(O)c1ccc(F)cc1

>  <patent_id>  (22) 
DEMO-101-A1

>  <assignee>  (22) 
Northstar Therapeutics

>  <publication_date>  (22) 
2022-03-17

>  <year>  (22) 
2022

>  <series>  (22) 
phenyl

>  <assay_id>  (22) 
ASSAY-01-11

>  <standard_relation>  (22) 
=

>  <pIC50>  (22) 
5.51

>  <project_note>  (22) 
primary measurement

>  <source_row>  (22) 
22

>  <status>  (22) 
accepted

>  <duplicate_group_size>  (22) 
1

>  <source_rows>  (22) 
22

>  <patent_ids>  (22) 
DEMO-101-A1

>  <assignees>  (22) 
Northstar Therapeutics

>  <molecular_weight>  (22) 
140.113

>  <clogp>  (22) 
1.524

>  <tpsa>  (22) 
37.3

>  <hbd>  (22) 
1

>  <hba>  (22) 
1

>  <rotatable_bonds>  (22) 
1

>  <heavy_atoms>  (22) 
10

>  <rings>  (22) 
1

>  <pIC50_median>  (22) 
5.51

>  <n_measurements>  (22) 
1.0

>  <murcko_scaffold>  (22) 
c1ccccc1

>  <scaffold_id>  (22) 
S001

>  <cluster_id>  (22) 
C037

$$$$
DPC0023
     RDKit          2D

  8  8  0  0  0  0  0  0  0  0999 V2000
    3.0000    0.0000    0.0000 Cl  0  0  0  0  0  0  0  0  0  0  0  0
    1.5000    0.0000    0.0000 C   0  0  0  0  0  0  0  0  0  0  0  0
    0.7500   -1.2990    0.0000 C   0  0  0  0  0  0  0  0  0  0  0  0
   -0.7500   -1.2990    0.0000 C   0  0  0  0  0  0  0  0  0  0  0  0
   -1.5000    0.0000    0.0000 C   0  0  0  0  0  0  0  0  0  0  0  0
   -3.0000    0.0000    0.0000 Cl  0  0  0  0  0  0  0  0  0  0  0  0
   -0.7500    1.2990    0.0000 C   0  0  0  0  0  0  0  0  0  0  0  0
    0.7500    1.2990    0.0000 C   0  0  0  0  0  0  0  0  0  0  0  0
  1  2  1  0
  2  3  1  0
  3  4  2  0
  4  5  1  0
  5  6  1  0
  5  7  2  0
  7  8  1  0
  8  2  2  0
M  END
>  <compound_id>  (23) 
DPC0023

>  <smiles>  (23) 
Clc1ccc(Cl)cc1

>  <patent_id>  (23) 
DEMO-101-A1

>  <assignee>  (23) 
Northstar Therapeutics

>  <publication_date>  (23) 
2022-03-17

>  <year>  (23) 
2022

>  <series>  (23) 
phenyl

>  <assay_id>  (23) 
ASSAY-01-12

>  <standard_relation>  (23) 
<

>  <pIC50>  (23) 
5.53

>  <project_note>  (23) 
primary measurement

>  <source_row>  (23) 
23

>  <status>  (23) 
accepted

>  <duplicate_group_size>  (23) 
1

>  <source_rows>  (23) 
23

>  <patent_ids>  (23) 
DEMO-101-A1

>  <assignees>  (23) 
Northstar Therapeutics

>  <molecular_weight>  (23) 
147.004

>  <clogp>  (23) 
2.993

>  <tpsa>  (23) 
0.0

>  <hbd>  (23) 
0

>  <hba>  (23) 
0

>  <rotatable_bonds>  (23) 
0

>  <heavy_atoms>  (23) 
8

>  <rings>  (23) 
1

>  <murcko_scaffold>  (23) 
c1ccccc1

>  <scaffold_id>  (23) 
S001

>  <cluster_id>  (23) 
C019

$$$$
DPC0024
     RDKit          2D

  8  8  0  0  0  0  0  0  0  0999 V2000
    3.0000    0.0000    0.0000 Cl  0  0  0  0  0  0  0  0  0  0  0  0
    1.5000    0.0000    0.0000 C   0  0  0  0  0  0  0  0  0  0  0  0
    0.7500   -1.2990    0.0000 C   0  0  0  0  0  0  0  0  0  0  0  0
   -0.7500   -1.2990    0.0000 C   0  0  0  0  0  0  0  0  0  0  0  0
   -1.5000    0.0000    0.0000 C   0  0  0  0  0  0  0  0  0  0  0  0
   -3.0000    0.0000    0.0000 Br  0  0  0  0  0  0  0  0  0  0  0  0
   -0.7500    1.2990    0.0000 C   0  0  0  0  0  0  0  0  0  0  0  0
    0.7500    1.2990    0.0000 C   0  0  0  0  0  0  0  0  0  0  0  0
  1  2  1  0
  2  3  1  0
  3  4  2  0
  4  5  1  0
  5  6  1  0
  5  7  2  0
  7  8  1  0
  8  2  2  0
M  END
>  <compound_id>  (24) 
DPC0024

>  <smiles>  (24) 
Clc1ccc(Br)cc1

>  <patent_id>  (24) 
DEMO-101-A1

>  <assignee>  (24) 
Northstar Therapeutics

>  <publication_date>  (24) 
2022-03-17

>  <year>  (24) 
2022

>  <series>  (24) 
phenyl

>  <assay_id>  (24) 
ASSAY-01-01

>  <standard_relation>  (24) 
=

>  <pIC50>  (24) 
5.48

>  <project_note>  (24) 
primary measurement

>  <source_row>  (24) 
24

>  <status>  (24) 
accepted

>  <duplicate_group_size>  (24) 
1

>  <source_rows>  (24) 
24

>  <patent_ids>  (24) 
DEMO-101-A1

>  <assignees>  (24) 
Northstar Therapeutics

>  <molecular_weight>  (24) 
191.455

>  <clogp>  (24) 
3.103

>  <tpsa>  (24) 
0.0

>  <hbd>  (24) 
0

>  <hba>  (24) 
0

>  <rotatable_bonds>  (24) 
0

>  <heavy_atoms>  (24) 
8

>  <rings>  (24) 
1

>  <pIC50_median>  (24) 
5.48

>  <n_measurements>  (24) 
1.0

>  <murcko_scaffold>  (24) 
c1ccccc1

>  <scaffold_id>  (24) 
S001

>  <cluster_id>  (24) 
C018

$$$$
DPC0025
     RDKit          2D

  8  8  0  0  0  0  0  0  0  0999 V2000
    3.0000    0.0000    0.0000 C   0  0  0  0  0  0  0  0  0  0  0  0
    1.5000    0.0000    0.0000 C   0  0  0  0  0  0  0  0  0  0  0  0
    0.7500   -1.2990    0.0000 C   0  0  0  0  0  0  0  0  0  0  0  0
   -0.7500   -1.2990    0.0000 C   0  0  0  0  0  0  0  0  0  0  0  0
   -1.5000    0.0000    0.0000 C   0  0  0  0  0  0  0  0  0  0  0  0
   -3.0000    0.0000    0.0000 Cl  0  0  0  0  0  0  0  0  0  0  0  0
   -0.7500    1.2990    0.0000 C   0  0  0  0  0  0  0  0  0  0  0  0
    0.7500    1.2990    0.0000 C   0  0  0  0  0  0  0  0  0  0  0  0
  1  2  1  0
  2  3  1  0
  3  4  2  0
  4  5  1  0
  5  6  1  0
  5  7  2  0
  7  8  1  0
  8  2  2  0
M  END
>  <compound_id>  (25) 
DPC0025

>  <smiles>  (25) 
Cc1ccc(Cl)cc1

>  <patent_id>  (25) 
DEMO-101-A1

>  <assignee>  (25) 
Northstar Therapeutics

>  <publication_date>  (25) 
2022-03-17

>  <year>  (25) 
2022

>  <series>  (25) 
phenyl

>  <assay_id>  (25) 
ASSAY-01-02

>  <standard_relation>  (25) 
=

>  <pIC50>  (25) 
5.46

>  <project_note>  (25) 
primary measurement

>  <source_row>  (25) 
25

>  <status>  (25) 
accepted

>  <duplicate_group_size>  (25) 
1

>  <source_rows>  (25) 
25

>  <patent_ids>  (25) 
DEMO-101-A1

>  <assignees>  (25) 
Northstar Therapeutics

>  <molecular_weight>  (25) 
126.586

>  <clogp>  (25) 
2.648

>  <tpsa>  (25) 
0.0

>  <hbd>  (25) 
0

>  <hba>  (25) 
0

>  <rotatable_bonds>  (25) 
0

>  <heavy_atoms>  (25) 
8

>  <rings>  (25) 
1

>  <pIC50_median>  (25) 
5.46

>  <n_measurements>  (25) 
1.0

>  <murcko_scaffold>  (25) 
c1ccccc1

>  <scaffold_id>  (25) 
S001

>  <cluster_id>  (25) 
C017

$$$$
DPC0026
     RDKit          2D

  9  9  0  0  0  0  0  0  0  0999 V2000
    3.7500   -1.2990    0.0000 C   0  0  0  0  0  0  0  0  0  0  0  0
    3.0000    0.0000    0.0000 C   0  0  0  0  0  0  0  0  0  0  0  0
    1.5000    0.0000    0.0000 C   0  0  0  0  0  0  0  0  0  0  0  0
    0.7500   -1.2990    0.0000 C   0  0  0  0  0  0  0  0  0  0  0  0
   -0.7500   -1.2990    0.0000 C   0  0  0  0  0  0  0  0  0  0  0  0
   -1.5000    0.0000    0.0000 C   0  0  0  0  0  0  0  0  0  0  0  0
   -3.0000    0.0000    0.0000 Cl  0  0  0  0  0  0  0  0  0  0  0  0
   -0.7500    1.2990    0.0000 C   0  0  0  0  0  0  0  0  0  0  0  0
    0.7500    1.2990    0.0000 C   0  0  0  0  0  0  0  0  0  0  0  0
  1  2  1  0
  2  3  1  0
  3  4  1  0
  4  5  2  0
  5  6  1  0
  6  7  1  0
  6  8  2  0
  8  9  1  0
  9  3  2  0
M  END
>  <compound_id>  (26) 
DPC0026

>  <smiles>  (26) 
CCc1ccc(Cl)cc1

>  <patent_id>  (26) 
DEMO-101-A1

>  <assignee>  (26) 
Northstar Therapeutics

>  <publication_date>  (26) 
2022-03-17

>  <year>  (26) 
2022

>  <series>  (26) 
phenyl

>  <assay_id>  (26) 
ASSAY-01-03

>  <standard_relation>  (26) 
=

>  <pIC50>  (26) 
5.64

>  <project_note>  (26) 
primary measurement

>  <source_row>  (26) 
26

>  <status>  (26) 
accepted

>  <duplicate_group_size>  (26) 
1

>  <source_rows>  (26) 
26

>  <patent_ids>  (26) 
DEMO-101-A1

>  <assignees>  (26) 
Northstar Therapeutics

>  <molecular_weight>  (26) 
140.613

>  <clogp>  (26) 
2.902

>  <tpsa>  (26) 
0.0

>  <hbd>  (26) 
0

>  <hba>  (26) 
0

>  <rotatable_bonds>  (26) 
1

>  <heavy_atoms>  (26) 
9

>  <rings>  (26) 
1

>  <pIC50_median>  (26) 
5.64

>  <n_measurements>  (26) 
1.0

>  <murcko_scaffold>  (26) 
c1ccccc1

>  <scaffold_id>  (26) 
S001

>  <cluster_id>  (26) 
C005

$$$$
DPC0027
     RDKit          2D

 10 10  0  0  0  0  0  0  0  0999 V2000
    5.2500   -1.2990    0.0000 C   0  0  0  0  0  0  0  0  0  0  0  0
    3.7500   -1.2990    0.0000 C   0  0  0  0  0  0  0  0  0  0  0  0
    3.0000    0.0000    0.0000 C   0  0  0  0  0  0  0  0  0  0  0  0
    1.5000    0.0000    0.0000 C   0  0  0  0  0  0  0  0  0  0  0  0
    0.7500   -1.2990    0.0000 C   0  0  0  0  0  0  0  0  0  0  0  0
   -0.7500   -1.2990    0.0000 C   0  0  0  0  0  0  0  0  0  0  0  0
   -1.5000    0.0000    0.0000 C   0  0  0  0  0  0  0  0  0  0  0  0
   -3.0000    0.0000    0.0000 Cl  0  0  0  0  0  0  0  0  0  0  0  0
   -0.7500    1.2990    0.0000 C   0  0  0  0  0  0  0  0  0  0  0  0
    0.7500    1.2990    0.0000 C   0  0  0  0  0  0  0  0  0  0  0  0
  1  2  1  0
  2  3  1  0
  3  4  1  0
  4  5  1  0
  5  6  2  0
  6  7  1  0
  7  8  1  0
  7  9  2  0
  9 10  1  0
 10  4  2  0
M  END
>  <compound_id>  (27) 
DPC0027

>  <smiles>  (27) 
CCCc1ccc(Cl)cc1

>  <patent_id>  (27) 
DEMO-101-A1

>  <assignee>  (27) 
Northstar Therapeutics

>  <publication_date>  (27) 
2022-03-17

>  <year>  (27) 
2022

>  <series>  (27) 
phenyl

>  <assay_id>  (27) 
ASSAY-01-04

>  <standard_relation>  (27) 
=

>  <pIC50>  (27) 
5.67

>  <project_note>  (27) 
primary measurement

>  <source_row>  (27) 
27

>  <status>  (27) 
accepted

>  <duplicate_group_size>  (27) 
1

>  <source_rows>  (27) 
27

>  <patent_ids>  (27) 
DEMO-101-A1

>  <assignees>  (27) 
Northstar Therapeutics

>  <molecular_weight>  (27) 
154.64

>  <clogp>  (27) 
3.293

>  <tpsa>  (27) 
0.0

>  <hbd>  (27) 
0

>  <hba>  (27) 
0

>  <rotatable_bonds>  (27) 
2

>  <heavy_atoms>  (27) 
10

>  <rings>  (27) 
1

>  <pIC50_median>  (27) 
5.67

>  <n_measurements>  (27) 
1.0

>  <murcko_scaffold>  (27) 
c1ccccc1

>  <scaffold_id>  (27) 
S001

>  <cluster_id>  (27) 
C002

$$$$
DPC0028
     RDKit          2D

  9  9  0  0  0  0  0  0  0  0999 V2000
    3.7500   -1.2990    0.0000 C   0  0  0  0  0  0  0  0  0  0  0  0
    3.0000    0.0000    0.0000 O   0  0  0  0  0  0  0  0  0  0  0  0
    1.5000    0.0000    0.0000 C   0  0  0  0  0  0  0  0  0  0  0  0
    0.7500   -1.2990    0.0000 C   0  0  0  0  0  0  0  0  0  0  0  0
   -0.7500   -1.2990    0.0000 C   0  0  0  0  0  0  0  0  0  0  0  0
   -1.5000    0.0000    0.0000 C   0  0  0  0  0  0  0  0  0  0  0  0
   -3.0000    0.0000    0.0000 Cl  0  0  0  0  0  0  0  0  0  0  0  0
   -0.7500    1.2990    0.0000 C   0  0  0  0  0  0  0  0  0  0  0  0
    0.7500    1.2990    0.0000 C   0  0  0  0  0  0  0  0  0  0  0  0
  1  2  1  0
  2  3  1  0
  3  4  1  0
  4  5  2  0
  5  6  1  0
  6  7  1  0
  6  8  2  0
  8  9  1  0
  9  3  2  0
M  END
>  <compound_id>  (28) 
DPC0028

>  <smiles>  (28) 
COc1ccc(Cl)cc1

>  <patent_id>  (28) 
DEMO-101-A1

>  <assignee>  (28) 
Northstar Therapeutics

>  <publication_date>  (28) 
2022-03-17

>  <year>  (28) 
2022

>  <series>  (28) 
phenyl

>  <assay_id>  (28) 
ASSAY-01-05

>  <standard_relation>  (28) 
=

>  <pIC50>  (28) 
5.82

>  <project_note>  (28) 
primary measurement

>  <source_row>  (28) 
28

>  <status>  (28) 
accepted

>  <duplicate_group_size>  (28) 
1

>  <source_rows>  (28) 
28

>  <patent_ids>  (28) 
DEMO-101-A1

>  <assignees>  (28) 
Northstar Therapeutics

>  <molecular_weight>  (28) 
142.585

>  <clogp>  (28) 
2.349

>  <tpsa>  (28) 
9.23

>  <hbd>  (28) 
0

>  <hba>  (28) 
1

>  <rotatable_bonds>  (28) 
1

>  <heavy_atoms>  (28) 
9

>  <rings>  (28) 
1

>  <pIC50_median>  (28) 
5.82

>  <n_measurements>  (28) 
1.0

>  <murcko_scaffold>  (28) 
c1ccccc1

>  <scaffold_id>  (28) 
S001

>  <cluster_id>  (28) 
C004

$$$$
DPC0029
     RDKit          2D

 10 10  0  0  0  0  0  0  0  0999 V2000
    5.2500   -1.2990    0.0000 C   0  0  0  0  0  0  0  0  0  0  0  0
    3.7500   -1.2990    0.0000 C   0  0  0  0  0  0  0  0  0  0  0  0
    3.0000    0.0000    0.0000 O   0  0  0  0  0  0  0  0  0  0  0  0
    1.5000    0.0000    0.0000 C   0  0  0  0  0  0  0  0  0  0  0  0
    0.7500   -1.2990    0.0000 C   0  0  0  0  0  0  0  0  0  0  0  0
   -0.7500   -1.2990    0.0000 C   0  0  0  0  0  0  0  0  0  0  0  0
   -1.5000    0.0000    0.0000 C   0  0  0  0  0  0  0  0  0  0  0  0
   -3.0000    0.0000    0.0000 Cl  0  0  0  0  0  0  0  0  0  0  0  0
   -0.7500    1.2990    0.0000 C   0  0  0  0  0  0  0  0  0  0  0  0
    0.7500    1.2990    0.0000 C   0  0  0  0  0  0  0  0  0  0  0  0
  1  2  1  0
  2  3  1  0
  3  4  1  0
  4  5  1  0
  5  6  2  0
  6  7  1  0
  7  8  1  0
  7  9  2  0
  9 10  1  0
 10  4  2  0
M  END
>  <compound_id>  (29) 
DPC0029

>  <smiles>  (29) 
CCOc1ccc(Cl)cc1

>  <patent_id>  (29) 
DEMO-101-A1

>  <assignee>  (29) 
Northstar Therapeutics

>  <publication_date>  (29) 
2022-03-17

>  <year>  (29) 
2022

>  <series>  (29) 
phenyl

>  <assay_id>  (29) 
ASSAY-01-06

>  <standard_relation>  (29) 
=

>  <pIC50>  (29) 
5.81

>  <project_note>  (29) 
primary measurement

>  <source_row>  (29) 
29

>  <status>  (29) 
accepted

>  <duplicate_group_size>  (29) 
1

>  <source_rows>  (29) 
29

>  <patent_ids>  (29) 
DEMO-101-A1

>  <assignees>  (29) 
Northstar Therapeutics

>  <molecular_weight>  (29) 
156.612

>  <clogp>  (29) 
2.739

>  <tpsa>  (29) 
9.23

>  <hbd>  (29) 
0

>  <hba>  (29) 
1

>  <rotatable_bonds>  (29) 
2

>  <heavy_atoms>  (29) 
10

>  <rings>  (29) 
1

>  <pIC50_median>  (29) 
5.81

>  <n_measurements>  (29) 
1.0

>  <murcko_scaffold>  (29) 
c1ccccc1

>  <scaffold_id>  (29) 
S001

>  <cluster_id>  (29) 
C001

$$$$
DPC0030
     RDKit          2D

  8  8  0  0  0  0  0  0  0  0999 V2000
    3.0000    0.0000    0.0000 N   0  0  0  0  0  0  0  0  0  0  0  0
    1.5000    0.0000    0.0000 C   0  0  0  0  0  0  0  0  0  0  0  0
    0.7500   -1.2990    0.0000 C   0  0  0  0  0  0  0  0  0  0  0  0
   -0.7500   -1.2990    0.0000 C   0  0  0  0  0  0  0  0  0  0  0  0
   -1.5000    0.0000    0.0000 C   0  0  0  0  0  0  0  0  0  0  0  0
   -3.0000    0.0000    0.0000 Cl  0  0  0  0  0  0  0  0  0  0  0  0
   -0.7500    1.2990    0.0000 C   0  0  0  0  0  0  0  0  0  0  0  0
    0.7500    1.2990    0.0000 C   0  0  0  0  0  0  0  0  0  0  0  0
  1  2  1  0
  2  3  1  0
  3  4  2  0
  4  5  1  0
  5  6  1  0
  5  7  2  0
  7  8  1  0
  8  2  2  0
M  END
>  <compound_id>  (30) 
DPC0030

>  <smiles>  (30) 
Nc1ccc(Cl)cc1

>  <patent_id>  (30) 
DEMO-101-A1

>  <assignee>  (30) 
Northstar Therapeutics

>  <publication_date>  (30) 
2022-03-17

>  <year>  (30) 
2022

>  <series>  (30) 
phenyl

>  <assay_id>  (30) 
ASSAY-01-07

>  <standard_relation>  (30) 
=

>  <pIC50>  (30) 
5.59

>  <project_note>  (30) 
primary measurement

>  <source_row>  (30) 
30

>  <status>  (30) 
accepted

>  <duplicate_group_size>  (30) 
1

>  <source_rows>  (30) 
30

>  <patent_ids>  (30) 
DEMO-101-A1

>  <assignees>  (30) 
Northstar Therapeutics

>  <molecular_weight>  (30) 
127.574

>  <clogp>  (30) 
1.922

>  <tpsa>  (30) 
26.02

>  <hbd>  (30) 
1

>  <hba>  (30) 
1

>  <rotatable_bonds>  (30) 
0

>  <heavy_atoms>  (30) 
8

>  <rings>  (30) 
1

>  <pIC50_median>  (30) 
5.59

>  <n_measurements>  (30) 
1.0

>  <murcko_scaffold>  (30) 
c1ccccc1

>  <scaffold_id>  (30) 
S001

>  <cluster_id>  (30) 
C015

$$$$
DPC0031
     RDKit          2D

  9  9  0  0  0  0  0  0  0  0999 V2000
    3.7500   -1.2990    0.0000 C   0  0  0  0  0  0  0  0  0  0  0  0
    3.0000    0.0000    0.0000 N   0  0  0  0  0  0  0  0  0  0  0  0
    1.5000    0.0000    0.0000 C   0  0  0  0  0  0  0  0  0  0  0  0
    0.7500   -1.2990    0.0000 C   0  0  0  0  0  0  0  0  0  0  0  0
   -0.7500   -1.2990    0.0000 C   0  0  0  0  0  0  0  0  0  0  0  0
   -1.5000    0.0000    0.0000 C   0  0  0  0  0  0  0  0  0  0  0  0
   -3.0000    0.0000    0.0000 Cl  0  0  0  0  0  0  0  0  0  0  0  0
   -0.7500    1.2990    0.0000 C   0  0  0  0  0  0  0  0  0  0  0  0
    0.7500    1.2990    0.0000 C   0  0  0  0  0  0  0  0  0  0  0  0
  1  2  1  0
  2  3  1  0
  3  4  1  0
  4  5  2  0
  5  6  1  0
  6  7  1  0
  6  8  2  0
  8  9  1  0
  9  3  2  0
M  END
>  <compound_id>  (31) 
DPC0031

>  <smiles>  (31) 
CNc1ccc(Cl)cc1

>  <patent_id>  (31) 
DEMO-101-A1

>  <assignee>  (31) 
Northstar Therapeutics

>  <publication_date>  (31) 
2022-03-17

>  <year>  (31) 
2022

>  <series>  (31) 
phenyl

>  <assay_id>  (31) 
ASSAY-01-08

>  <standard_relation>  (31) 
=

>  <pIC50>  (31) 
5.54

>  <project_note>  (31) 
primary measurement

>  <source_row>  (31) 
31

>  <status>  (31) 
accepted

>  <duplicate_group_size>  (31) 
1

>  <source_rows>  (31) 
31

>  <patent_ids>  (31) 
DEMO-101-A1

>  <assignees>  (31) 
Northstar Therapeutics

>  <molecular_weight>  (31) 
141.601

>  <clogp>  (31) 
2.382

>  <tpsa>  (31) 
12.03

>  <hbd>  (31) 
1

>  <hba>  (31) 
1

>  <rotatable_bonds>  (31) 
1

>  <heavy_atoms>  (31) 
9

>  <rings>  (31) 
1

>  <pIC50_median>  (31) 
5.54

>  <n_measurements>  (31) 
1.0

>  <murcko_scaffold>  (31) 
c1ccccc1

>  <scaffold_id>  (31) 
S001

>  <cluster_id>  (31) 
C008

$$$$
DPC0032
     RDKit          2D

 10 10  0  0  0  0  0  0  0  0999 V2000
    3.7500   -1.2990    0.0000 C   0  0  0  0  0  0  0  0  0  0  0  0
    3.0000    0.0000    0.0000 N   0  0  0  0  0  0  0  0  0  0  0  0
    3.7500    1.2990    0.0000 C   0  0  0  0  0  0  0  0  0  0  0  0
    1.5000    0.0000    0.0000 C   0  0  0  0  0  0  0  0  0  0  0  0
    0.7500   -1.2990    0.0000 C   0  0  0  0  0  0  0  0  0  0  0  0
   -0.7500   -1.2990    0.0000 C   0  0  0  0  0  0  0  0  0  0  0  0
   -1.5000    0.0000    0.0000 C   0  0  0  0  0  0  0  0  0  0  0  0
   -3.0000    0.0000    0.0000 Cl  0  0  0  0  0  0  0  0  0  0  0  0
   -0.7500    1.2990    0.0000 C   0  0  0  0  0  0  0  0  0  0  0  0
    0.7500    1.2990    0.0000 C   0  0  0  0  0  0  0  0  0  0  0  0
  1  2  1  0
  2  3  1  0
  2  4  1  0
  4  5  1  0
  5  6  2  0
  6  7  1  0
  7  8  1  0
  7  9  2  0
  9 10  1  0
 10  4  2  0
M  END
>  <compound_id>  (32) 
DPC0032

>  <smiles>  (32) 
CN(C)c1ccc(Cl)cc1

>  <patent_id>  (32) 
DEMO-101-A1

>  <assignee>  (32) 
Northstar Therapeutics

>  <publication_date>  (32) 
2022-03-17

>  <year>  (32) 
2022

>  <series>  (32) 
phenyl

>  <assay_id>  (32) 
ASSAY-01-09

>  <standard_relation>  (32) 
=

>  <pIC50>  (32) 
5.54

>  <project_note>  (32) 
primary measurement

>  <source_row>  (32) 
32

>  <status>  (32) 
accepted

>  <duplicate_group_size>  (32) 
1

>  <source_rows>  (32) 
32

>  <patent_ids>  (32) 
DEMO-101-A1

>  <assignees>  (32) 
Northstar Therapeutics

>  <molecular_weight>  (32) 
155.628

>  <clogp>  (32) 
2.406

>  <tpsa>  (32) 
3.24

>  <hbd>  (32) 
0

>  <hba>  (32) 
1

>  <rotatable_bonds>  (32) 
1

>  <heavy_atoms>  (32) 
10

>  <rings>  (32) 
1

>  <pIC50_median>  (32) 
5.54

>  <n_measurements>  (32) 
1.0

>  <murcko_scaffold>  (32) 
c1ccccc1

>  <scaffold_id>  (32) 
S001

>  <cluster_id>  (32) 
C007

$$$$
DPC0033
     RDKit          2D

  9  9  0  0  0  0  0  0  0  0999 V2000
    4.5000    0.0000    0.0000 N   0  0  0  0  0  0  0  0  0  0  0  0
    3.0000    0.0000    0.0000 C   0  0  0  0  0  0  0  0  0  0  0  0
    1.5000    0.0000    0.0000 C   0  0  0  0  0  0  0  0  0  0  0  0
    0.7500   -1.2990    0.0000 C   0  0  0  0  0  0  0  0  0  0  0  0
   -0.7500   -1.2990    0.0000 C   0  0  0  0  0  0  0  0  0  0  0  0
   -1.5000    0.0000    0.0000 C   0  0  0  0  0  0  0  0  0  0  0  0
   -3.0000    0.0000    0.0000 Cl  0  0  0  0  0  0  0  0  0  0  0  0
   -0.7500    1.2990    0.0000 C   0  0  0  0  0  0  0  0  0  0  0  0
    0.7500    1.2990    0.0000 C   0  0  0  0  0  0  0  0  0  0  0  0
  1  2  3  0
  2  3  1  0
  3  4  1  0
  4  5  2  0
  5  6  1  0
  6  7  1  0
  6  8  2  0
  8  9  1  0
  9  3  2  0
M  END
>  <compound_id>  (33) 
DPC0033

>  <smiles>  (33) 
N#Cc1ccc(Cl)cc1

>  <patent_id>  (33) 
DEMO-101-A1

>  <assignee>  (33) 
Northstar Therapeutics

>  <publication_date>  (33) 
2022-03-17

>  <year>  (33) 
2022

>  <series>  (33) 
phenyl

>  <assay_id>  (33) 
ASSAY-01-10

>  <standard_relation>  (33) 
=

>  <pIC50>  (33) 
5.64

>  <project_note>  (33) 
primary measurement

>  <source_row>  (33) 
33

>  <status>  (33) 
accepted

>  <duplicate_group_size>  (33) 
1

>  <source_rows>  (33) 
33

>  <patent_ids>  (33) 
DEMO-101-A1

>  <assignees>  (33) 
Northstar Therapeutics

>  <molecular_weight>  (33) 
137.569

>  <clogp>  (33) 
2.212

>  <tpsa>  (33) 
23.79

>  <hbd>  (33) 
0

>  <hba>  (33) 
1

>  <rotatable_bonds>  (33) 
0

>  <heavy_atoms>  (33) 
9

>  <rings>  (33) 
1

>  <pIC50_median>  (33) 
5.64

>  <n_measurements>  (33) 
1.0

>  <murcko_scaffold>  (33) 
c1ccccc1

>  <scaffold_id>  (33) 
S001

>  <cluster_id>  (33) 
C009

$$$$
DPC0034
     RDKit          2D

 11 11  0  0  0  0  0  0  0  0999 V2000
    4.5000    0.0000    0.0000 F   0  0  0  0  0  0  0  0  0  0  0  0
    3.0000    0.0000    0.0000 C   0  0  0  0  0  0  0  0  0  0  0  0
    3.0000   -1.5000    0.0000 F   0  0  0  0  0  0  0  0  0  0  0  0
    3.0000    1.5000    0.0000 F   0  0  0  0  0  0  0  0  0  0  0  0
    1.5000    0.0000    0.0000 C   0  0  0  0  0  0  0  0  0  0  0  0
    0.7500   -1.2990    0.0000 C   0  0  0  0  0  0  0  0  0  0  0  0
   -0.7500   -1.2990    0.0000 C   0  0  0  0  0  0  0  0  0  0  0  0
   -1.5000    0.0000    0.0000 C   0  0  0  0  0  0  0  0  0  0  0  0
   -3.0000    0.0000    0.0000 Cl  0  0  0  0  0  0  0  0  0  0  0  0
   -0.7500    1.2990    0.0000 C   0  0  0  0  0  0  0  0  0  0  0  0
    0.7500    1.2990    0.0000 C   0  0  0  0  0  0  0  0  0  0  0  0
  1  2  1  0
  2  3  1  0
  2  4  1  0
  2  5  1  0
  5  6  1  0
  6  7  2  0
  7  8  1  0
  8  9  1  0
  8 10  2  0
 10 11  1  0
 11  5  2  0
M  END
>  <compound_id>  (34) 
DPC0034

>  <smiles>  (34) 
FC(F)(F)c1ccc(Cl)cc1

>  <patent_id>  (34) 
DEMO-101-A1

>  <assignee>  (34) 
Northstar Therapeutics

>  <publication_date>  (34) 
2022-03-17

>  <year>  (34) 
2022

>  <series>  (34) 
phenyl

>  <assay_id>  (34) 
ASSAY-01-11

>  <standard_relation>  (34) 
=

>  <pIC50>  (34) 
5.69

>  <project_note>  (34) 
primary measurement

>  <source_row>  (34) 
34

>  <status>  (34) 
accepted

>  <duplicate_group_size>  (34) 
1

>  <source_rows>  (34) 
34

>  <patent_ids>  (34) 
DEMO-101-A1

>  <assignees>  (34) 
Northstar Therapeutics

>  <molecular_weight>  (34) 
180.556

>  <clogp>  (34) 
3.359

>  <tpsa>  (34) 
0.0

>  <hbd>  (34) 
0

>  <hba>  (34) 
0

>  <rotatable_bonds>  (34) 
0

>  <heavy_atoms>  (34) 
11

>  <rings>  (34) 
1

>  <pIC50_median>  (34) 
5.69

>  <n_measurements>  (34) 
1.0

>  <murcko_scaffold>  (34) 
c1ccccc1

>  <scaffold_id>  (34) 
S001

>  <cluster_id>  (34) 
C006

$$$$
DPC0035
     RDKit          2D

 10 10  0  0  0  0  0  0  0  0999 V2000
    3.7500   -1.2990    0.0000 N   0  0  0  0  0  0  0  0  0  0  0  0
    3.0000    0.0000    0.0000 C   0  0  0  0  0  0  0  0  0  0  0  0
    3.7500    1.2990    0.0000 O   0  0  0  0  0  0  0  0  0  0  0  0
    1.5000    0.0000    0.0000 C   0  0  0  0  0  0  0  0  0  0  0  0
    0.7500   -1.2990    0.0000 C   0  0  0  0  0  0  0  0  0  0  0  0
   -0.7500   -1.2990    0.0000 C   0  0  0  0  0  0  0  0  0  0  0  0
   -1.5000    0.0000    0.0000 C   0  0  0  0  0  0  0  0  0  0  0  0
   -3.0000    0.0000    0.0000 Cl  0  0  0  0  0  0  0  0  0  0  0  0
   -0.7500    1.2990    0.0000 C   0  0  0  0  0  0  0  0  0  0  0  0
    0.7500    1.2990    0.0000 C   0  0  0  0  0  0  0  0  0  0  0  0
  1  2  1  0
  2  3  2  0
  2  4  1  0
  4  5  1  0
  5  6  2  0
  6  7  1  0
  7  8  1  0
  7  9  2  0
  9 10  1  0
 10  4  2  0
M  END
>  <compound_id>  (35) 
DPC0035

>  <smiles>  (35) 
NC(=O)c1ccc(Cl)cc1

>  <patent_id>  (35) 
DEMO-101-A1

>  <assignee>  (35) 
Northstar Therapeutics

>  <publication_date>  (35) 
2022-03-17

>  <year>  (35) 
2022

>  <series>  (35) 
phenyl

>  <assay_id>  (35) 
ASSAY-01-12

>  <standard_relation>  (35) 
=

>  <pIC50>  (35) 
5.77

>  <project_note>  (35) 
primary measurement

>  <source_row>  (35) 
35

>  <status>  (35) 
accepted

>  <duplicate_group_size>  (35) 
1

>  <source_rows>  (35) 
35

>  <patent_ids>  (35) 
DEMO-101-A1

>  <assignees>  (35) 
Northstar Therapeutics

>  <molecular_weight>  (35) 
155.584

>  <clogp>  (35) 
1.439

>  <tpsa>  (35) 
43.09

>  <hbd>  (35) 
1

>  <hba>  (35) 
1

>  <rotatable_bonds>  (35) 
1

>  <heavy_atoms>  (35) 
10

>  <rings>  (35) 
1

>  <pIC50_median>  (35) 
5.77

>  <n_measurements>  (35) 
1.0

>  <murcko_scaffold>  (35) 
c1ccccc1

>  <scaffold_id>  (35) 
S001

>  <cluster_id>  (35) 
C003

$$$$
DPC0036
     RDKit          2D

 11 11  0  0  0  0  0  0  0  0999 V2000
    5.2500   -1.2990    0.0000 C   0  0  0  0  0  0  0  0  0  0  0  0
    3.7500   -1.2990    0.0000 N   0  0  0  0  0  0  0  0  0  0  0  0
    3.0000    0.0000    0.0000 C   0  0  0  0  0  0  0  0  0  0  0  0
    3.7500    1.2990    0.0000 O   0  0  0  0  0  0  0  0  0  0  0  0
    1.5000    0.0000    0.0000 C   0  0  0  0  0  0  0  0  0  0  0  0
    0.7500   -1.2990    0.0000 C   0  0  0  0  0  0  0  0  0  0  0  0
   -0.7500   -1.2990    0.0000 C   0  0  0  0  0  0  0  0  0  0  0  0
   -1.5000    0.0000    0.0000 C   0  0  0  0  0  0  0  0  0  0  0  0
   -3.0000    0.0000    0.0000 Cl  0  0  0  0  0  0  0  0  0  0  0  0
   -0.7500    1.2990    0.0000 C   0  0  0  0  0  0  0  0  0  0  0  0
    0.7500    1.2990    0.0000 C   0  0  0  0  0  0  0  0  0  0  0  0
  1  2  1  0
  2  3  1  0
  3  4  2  0
  3  5  1  0
  5  6  1  0
  6  7  2  0
  7  8  1  0
  8  9  1  0
  8 10  2  0
 10 11  1  0
 11  5  2  0
M  END
>  <compound_id>  (36) 
DPC0036

>  <smiles>  (36) 
CNC(=O)c1ccc(Cl)cc1

>  <patent_id>  (36) 
DEMO-101-A1

>  <assignee>  (36) 
Northstar Therapeutics

>  <publication_date>  (36) 
2022-03-17

>  <year>  (36) 
2022

>  <series>  (36) 
phenyl

>  <assay_id>  (36) 
ASSAY-01-01

>  <standard_relation>  (36) 
=

>  <pIC50>  (36) 
5.94

>  <project_note>  (36) 
primary measurement

>  <source_row>  (36) 
36

>  <status>  (36) 
accepted

>  <duplicate_group_size>  (36) 
1

>  <source_rows>  (36) 
36

>  <patent_ids>  (36) 
DEMO-101-A1

>  <assignees>  (36) 
Northstar Therapeutics

>  <molecular_weight>  (36) 
169.611

>  <clogp>  (36) 
1.7

>  <tpsa>  (36) 
29.1

>  <hbd>  (36) 
1

>  <hba>  (36) 
1

>  <rotatable_bonds>  (36) 
1

>  <heavy_atoms>  (36) 
11

>  <rings>  (36) 
1

>  <pIC50_median>  (36) 
5.94

>  <n_measurements>  (36) 
1.0

>  <murcko_scaffold>  (36) 
c1ccccc1

>  <scaffold_id>  (36) 
S001

>  <cluster_id>  (36) 
C010

$$$$
DPC0037
     RDKit          2D

 11 11  0  0  0  0  0  0  0  0999 V2000
    4.5000    0.0000    0.0000 N   0  0  0  0  0  0  0  0  0  0  0  0
    3.0000    0.0000    0.0000 S   0  0  0  0  0  0  0  0  0  0  0  0
    3.0000   -1.5000    0.0000 O   0  0  0  0  0  0  0  0  0  0  0  0
    3.0000    1.5000    0.0000 O   0  0  0  0  0  0  0  0  0  0  0  0
    1.5000    0.0000    0.0000 C   0  0  0  0  0  0  0  0  0  0  0  0
    0.7500   -1.2990    0.0000 C   0  0  0  0  0  0  0  0  0  0  0  0
   -0.7500   -1.2990    0.0000 C   0  0  0  0  0  0  0  0  0  0  0  0
   -1.5000    0.0000    0.0000 C   0  0  0  0  0  0  0  0  0  0  0  0
   -3.0000    0.0000    0.0000 Cl  0  0  0  0  0  0  0  0  0  0  0  0
   -0.7500    1.2990    0.0000 C   0  0  0  0  0  0  0  0  0  0  0  0
    0.7500    1.2990    0.0000 C   0  0  0  0  0  0  0  0  0  0  0  0
  1  2  1  0
  2  3  2  0
  2  4  2  0
  2  5  1  0
  5  6  1  0
  6  7  2  0
  7  8  1  0
  8  9  1  0
  8 10  2  0
 10 11  1  0
 11  5  2  0
M  END
>  <compound_id>  (37) 
DPC0037

>  <smiles>  (37) 
NS(=O)(=O)c1ccc(Cl)cc1

>  <patent_id>  (37) 
DEMO-101-A1

>  <assignee>  (37) 
Northstar Therapeutics

>  <publication_date>  (37) 
2022-03-17

>  <year>  (37) 
2022

>  <series>  (37) 
phenyl

>  <assay_id>  (37) 
ASSAY-01-02

>  <standard_relation>  (37) 
>

>  <pIC50>  (37) 
5.86

>  <project_note>  (37) 
primary measurement

>  <source_row>  (37) 
37

>  <status>  (37) 
accepted

>  <duplicate_group_size>  (37) 
1

>  <source_rows>  (37) 
37

>  <patent_ids>  (37) 
DEMO-101-A1

>  <assignees>  (37) 
Northstar Therapeutics

>  <molecular_weight>  (37) 
191.639

>  <clogp>  (37) 
0.987

>  <tpsa>  (37) 
60.16

>  <hbd>  (37) 
1

>  <hba>  (37) 
2

>  <rotatable_bonds>  (37) 
1

>  <heavy_atoms>  (37) 
11

>  <rings>  (37) 
1

>  <murcko_scaffold>  (37) 
c1ccccc1

>  <scaffold_id>  (37) 
S001

>  <cluster_id>  (37) 
C014

$$$$
DPC0038
     RDKit          2D

 12 12  0  0  0  0  0  0  0  0999 V2000
    4.5000   -2.5981    0.0000 F   0  0  0  0  0  0  0  0  0  0  0  0
    3.7500   -1.2990    0.0000 C   0  0  0  0  0  0  0  0  0  0  0  0
    5.0490   -0.5490    0.0000 F   0  0  0  0  0  0  0  0  0  0  0  0
    2.4510   -2.0490    0.0000 F   0  0  0  0  0  0  0  0  0  0  0  0
    3.0000    0.0000    0.0000 O   0  0  0  0  0  0  0  0  0  0  0  0
    1.5000    0.0000    0.0000 C   0  0  0  0  0  0  0  0  0  0  0  0
    0.7500   -1.2990    0.0000 C   0  0  0  0  0  0  0  0  0  0  0  0
   -0.7500   -1.2990    0.0000 C   0  0  0  0  0  0  0  0  0  0  0  0
   -1.5000    0.0000    0.0000 C   0  0  0  0  0  0  0  0  0  0  0  0
   -3.0000    0.0000    0.0000 Cl  0  0  0  0  0  0  0  0  0  0  0  0
   -0.7500    1.2990    0.0000 C   0  0  0  0  0  0  0  0  0  0  0  0
    0.7500    1.2990    0.0000 C   0  0  0  0  0  0  0  0  0  0  0  0
  1  2  1  0
  2  3  1  0
  2  4  1  0
  2  5  1  0
  5  6  1  0
  6  7  1  0
  7  8  2  0
  8  9  1  0
  9 10  1  0
  9 11  2  0
 11 12  1  0
 12  6  2  0
M  END
>  <compound_id>  (38) 
DPC0038

>  <smiles>  (38) 
FC(F)(F)Oc1ccc(Cl)cc1

>  <patent_id>  (38) 
DEMO-101-A1

>  <assignee>  (38) 
Northstar Therapeutics

>  <publication_date>  (38) 
2022-03-17

>  <year>  (38) 
2022

>  <series>  (38) 
phenyl

>  <assay_id>  (38) 
ASSAY-01-03

>  <standard_relation>  (38) 
=

>  <pIC50>  (38) 
5.83

>  <project_note>  (38) 
primary measurement

>  <source_row>  (38) 
38

>  <status>  (38) 
accepted

>  <duplicate_group_size>  (38) 
1

>  <source_rows>  (38) 
38

>  <patent_ids>  (38) 
DEMO-101-A1

>  <assignees>  (38) 
Northstar Therapeutics

>  <molecular_weight>  (38) 
196.555

>  <clogp>  (38) 
3.239

>  <tpsa>  (38) 
9.23

>  <hbd>  (38) 
0

>  <hba>  (38) 
1

>  <rotatable_bonds>  (38) 
1

>  <heavy_atoms>  (38) 
12

>  <rings>  (38) 
1

>  <pIC50_median>  (38) 
5.83

>  <n_measurements>  (38) 
1.0

>  <murcko_scaffold>  (38) 
c1ccccc1

>  <scaffold_id>  (38) 
S001

>  <cluster_id>  (38) 
C013

$$$$
DPC0039
     RDKit          2D

 13 14  0  0  0  0  0  0  0  0999 V2000
    3.0000    0.0000    0.0000 Cl  0  0  0  0  0  0  0  0  0  0  0  0
    1.5000    0.0000    0.0000 C   0  0  0  0  0  0  0  0  0  0  0  0
    0.7500   -1.2990    0.0000 C   0  0  0  0  0  0  0  0  0  0  0  0
   -0.7500   -1.2990    0.0000 C   0  0  0  0  0  0  0  0  0  0  0  0
   -1.5000    0.0000    0.0000 C   0  0  0  0  0  0  0  0  0  0  0  0
   -3.0000    0.0000    0.0000 N   0  0  0  0  0  0  0  0  0  0  0  0
   -3.7500    1.2990    0.0000 C   0  0  0  0  0  0  0  0  0  0  0  0
   -5.2500    1.2990    0.0000 C   0  0  0  0  0  0  0  0  0  0  0  0
   -6.0000    0.0000    0.0000 O   0  0  0  0  0  0  0  0  0  0  0  0
   -5.2500   -1.2990    0.0000 C   0  0  0  0  0  0  0  0  0  0  0  0
   -3.7500   -1.2990    0.0000 C   0  0  0  0  0  0  0  0  0  0  0  0
   -0.7500    1.2990    0.0000 C   0  0  0  0  0  0  0  0  0  0  0  0
    0.7500    1.2990    0.0000 C   0  0  0  0  0  0  0  0  0  0  0  0
  1  2  1  0
  2  3  1  0
  3  4  2  0
  4  5  1  0
  5  6  1  0
  6  7  1  0
  7  8  1  0
  8  9  1  0
  9 10  1  0
 10 11  1  0
  5 12  2  0
 12 13  1  0
 13  2  2  0
 11  6  1  0
M  END
>  <compound_id>  (39) 
DPC0039

>  <smiles>  (39) 
Clc1ccc(N2CCOCC2)cc1

>  <patent_id>  (39) 
DEMO-101-A1

>  <assignee>  (39) 
Northstar Therapeutics

>  <publication_date>  (39) 
2022-03-17

>  <year>  (39) 
2022

>  <series>  (39) 
phenyl

>  <assay_id>  (39) 
ASSAY-01-04

>  <standard_relation>  (39) 
=

>  <pIC50>  (39) 
5.94

>  <project_note>  (39) 
primary measurement

>  <source_row>  (39) 
39

>  <status>  (39) 
accepted

>  <duplicate_group_size>  (39) 
1

>  <source_rows>  (39) 
39

>  <patent_ids>  (39) 
DEMO-101-A1

>  <assignees>  (39) 
Northstar Therapeutics

>  <molecular_weight>  (39) 
197.665

>  <clogp>  (39) 
2.177

>  <tpsa>  (39) 
12.47

>  <hbd>  (39) 
0

>  <hba>  (39) 
2

>  <rotatable_bonds>  (39) 
1

>  <heavy_atoms>  (39) 
13

>  <rings>  (39) 
2

>  <pIC50_median>  (39) 
5.94

>  <n_measurements>  (39) 
1.0

>  <murcko_scaffold>  (39) 
c1ccc(N2CCOCC2)cc1

>  <scaffold_id>  (39) 
S002

>  <cluster_id>  (39) 
C011

$$$$
DPC0040
     RDKit          2D

 10 11  0  0  0  0  0  0  0  0999 V2000
    3.0000    0.0000    0.0000 Cl  0  0  0  0  0  0  0  0  0  0  0  0
    1.5000    0.0000    0.0000 C   0  0  0  0  0  0  0  0  0  0  0  0
    0.7500   -1.2990    0.0000 C   0  0  0  0  0  0  0  0  0  0  0  0
   -0.7500   -1.2990    0.0000 C   0  0  0  0  0  0  0  0  0  0  0  0
   -1.5000    0.0000    0.0000 C   0  0  0  0  0  0  0  0  0  0  0  0
   -3.0000    0.0000    0.0000 C   0  0  0  0  0  0  0  0  0  0  0  0
   -4.2990   -0.7500    0.0000 C   0  0  0  0  0  0  0  0  0  0  0  0
   -4.2990    0.7500    0.0000 C   0  0  0  0  0  0  0  0  0  0  0  0
   -0.7500    1.2990    0.0000 C   0  0  0  0  0  0  0  0  0  0  0  0
    0.7500    1.2990    0.0000 C   0  0  0  0  0  0  0  0  0  0  0  0
  1  2  1  0
  2  3  1  0
  3  4  2  0
  4  5  1  0
  5  6  1  0
  6  7  1  0
  7  8  1  0
  5  9  2  0
  9 10  1  0
 10  2  2  0
  8  6  1  0
M  END
>  <compound_id>  (40) 
DPC0040

>  <smiles>  (40) 
Clc1ccc(C2CC2)cc1

>  <patent_id>  (40) 
DEMO-101-A1

>  <assignee>  (40) 
Northstar Therapeutics

>  <publication_date>  (40) 
2022-03-17

>  <year>  (40) 
2022

>  <series>  (40) 
phenyl

>  <assay_id>  (40) 
ASSAY-01-05

>  <standard_relation>  (40) 
=

>  <pIC50>  (40) 
5.56

>  <project_note>  (40) 
primary measurement

>  <source_row>  (40) 
40

>  <status>  (40) 
accepted

>  <duplicate_group_size>  (40) 
1

>  <source_rows>  (40) 
40

>  <patent_ids>  (40) 
DEMO-101-A1

>  <assignees>  (40) 
Northstar Therapeutics

>  <molecular_weight>  (40) 
152.624

>  <clogp>  (40) 
3.217

>  <tpsa>  (40) 
0.0

>  <hbd>  (40) 
0

>  <hba>  (40) 
0

>  <rotatable_bonds>  (40) 
1

>  <heavy_atoms>  (40) 
10

>  <rings>  (40) 
2

>  <pIC50_median>  (40) 
5.56

>  <n_measurements>  (40) 
1.0

>  <murcko_scaffold>  (40) 
c1ccc(C2CC2)cc1

>  <scaffold_id>  (40) 
S003

>  <cluster_id>  (40) 
C036

$$$$
DPC0041
     RDKit          2D

 13 14  0  0  0  0  0  0  0  0999 V2000
    3.0000    0.0000    0.0000 Cl  0  0  0  0  0  0  0  0  0  0  0  0
    1.5000    0.0000    0.0000 C   0  0  0  0  0  0  0  0  0  0  0  0
    0.7500   -1.2990    0.0000 C   0  0  0  0  0  0  0  0  0  0  0  0
   -0.7500   -1.2990    0.0000 C   0  0  0  0  0  0  0  0  0  0  0  0
   -1.5000    0.0000    0.0000 C   0  0  0  0  0  0  0  0  0  0  0  0
   -3.0000    0.0000    0.0000 C   0  0  0  0  0  0  0  0  0  0  0  0
   -3.7500    1.2990    0.0000 C   0  0  0  0  0  0  0  0  0  0  0  0
   -5.2500    1.2990    0.0000 C   0  0  0  0  0  0  0  0  0  0  0  0
   -6.0000    0.0000    0.0000 C   0  0  0  0  0  0  0  0  0  0  0  0
   -5.2500   -1.2990    0.0000 C   0  0  0  0  0  0  0  0  0  0  0  0
   -3.7500   -1.2990    0.0000 C   0  0  0  0  0  0  0  0  0  0  0  0
   -0.7500    1.2990    0.0000 C   0  0  0  0  0  0  0  0  0  0  0  0
    0.7500    1.2990    0.0000 C   0  0  0  0  0  0  0  0  0  0  0  0
  1  2  1  0
  2  3  1  0
  3  4  2  0
  4  5  1  0
  5  6  1  0
  6  7  1  0
  7  8  1  0
  8  9  1  0
  9 10  1  0
 10 11  1  0
  5 12  2  0
 12 13  1  0
 13  2  2  0
 11  6  1  0
M  END
>  <compound_id>  (41) 
DPC0041

>  <smiles>  (41) 
Clc1ccc(C2CCCCC2)cc1

>  <patent_id>  (41) 
DEMO-101-A1

>  <assignee>  (41) 
Northstar Therapeutics

>  <publication_date>  (41) 
2022-03-17

>  <year>  (41) 
2022

>  <series>  (41) 
phenyl

>  <assay_id>  (41) 
ASSAY-01-06

>  <standard_relation>  (41) 
=

>  <pIC50>  (41) 
5.66

>  <project_note>  (41) 
primary measurement

>  <source_row>  (41) 
41

>  <status>  (41) 
accepted

>  <duplicate_group_size>  (41) 
1

>  <source_rows>  (41) 
41

>  <patent_ids>  (41) 
DEMO-101-A1

>  <assignees>  (41) 
Northstar Therapeutics

>  <molecular_weight>  (41) 
194.705

>  <clogp>  (41) 
4.388

>  <tpsa>  (41) 
0.0

>  <hbd>  (41) 
0

>  <hba>  (41) 
0

>  <rotatable_bonds>  (41) 
1

>  <heavy_atoms>  (41) 
13

>  <rings>  (41) 
2

>  <pIC50_median>  (41) 
5.66

>  <n_measurements>  (41) 
1.0

>  <murcko_scaffold>  (41) 
c1ccc(C2CCCCC2)cc1

>  <scaffold_id>  (41) 
S004

>  <cluster_id>  (41) 
C012

$$$$
DPC0042
     RDKit          2D

  8  8  0  0  0  0  0  0  0  0999 V2000
    3.0000    0.0000    0.0000 O   0  0  0  0  0  0  0  0  0  0  0  0
    1.5000    0.0000    0.0000 C   0  0  0  0  0  0  0  0  0  0  0  0
    0.7500   -1.2990    0.0000 C   0  0  0  0  0  0  0  0  0  0  0  0
   -0.7500   -1.2990    0.0000 C   0  0  0  0  0  0  0  0  0  0  0  0
   -1.5000    0.0000    0.0000 C   0  0  0  0  0  0  0  0  0  0  0  0
   -3.0000    0.0000    0.0000 Cl  0  0  0  0  0  0  0  0  0  0  0  0
   -0.7500    1.2990    0.0000 C   0  0  0  0  0  0  0  0  0  0  0  0
    0.7500    1.2990    0.0000 C   0  0  0  0  0  0  0  0  0  0  0  0
  1  2  1  0
  2  3  1  0
  3  4  2  0
  4  5  1  0
  5  6  1  0
  5  7  2  0
  7  8  1  0
  8  2  2  0
M  END
>  <compound_id>  (42) 
DPC0042

>  <smiles>  (42) 
Oc1ccc(Cl)cc1

>  <patent_id>  (42) 
DEMO-101-A1

>  <assignee>  (42) 
Northstar Therapeutics

>  <publication_date>  (42) 
2022-03-17

>  <year>  (42) 
2022

>  <series>  (42) 
phenyl

>  <assay_id>  (42) 
ASSAY-01-07

>  <standard_relation>  (42) 
=

>  <pIC50>  (42) 
5.53

>  <project_note>  (42) 
primary measurement

>  <source_row>  (42) 
42

>  <status>  (42) 
accepted

>  <duplicate_group_size>  (42) 
1

>  <source_rows>  (42) 
42

>  <patent_ids>  (42) 
DEMO-101-A1

>  <assignees>  (42) 
Northstar Therapeutics

>  <molecular_weight>  (42) 
128.558

>  <clogp>  (42) 
2.046

>  <tpsa>  (42) 
20.23

>  <hbd>  (42) 
1

>  <hba>  (42) 
1

>  <rotatable_bonds>  (42) 
0

>  <heavy_atoms>  (42) 
8

>  <rings>  (42) 
1

>  <pIC50_median>  (42) 
5.53

>  <n_measurements>  (42) 
1.0

>  <murcko_scaffold>  (42) 
c1ccccc1

>  <scaffold_id>  (42) 
S001

>  <cluster_id>  (42) 
C019

$$$$
DPC0043
     RDKit          2D

 10 10  0  0  0  0  0  0  0  0999 V2000
    3.7500    1.2990    0.0000 O   0  0  0  0  0  0  0  0  0  0  0  0
    3.0000    0.0000    0.0000 C   0  0  0  0  0  0  0  0  0  0  0  0
    3.7500   -1.2990    0.0000 O   0  0  0  0  0  0  0  0  0  0  0  0
    1.5000    0.0000    0.0000 C   0  0  0  0  0  0  0  0  0  0  0  0
    0.7500   -1.2990    0.0000 C   0  0  0  0  0  0  0  0  0  0  0  0
   -0.7500   -1.2990    0.0000 C   0  0  0  0  0  0  0  0  0  0  0  0
   -1.5000    0.0000    0.0000 C   0  0  0  0  0  0  0  0  0  0  0  0
   -3.0000    0.0000    0.0000 Cl  0  0  0  0  0  0  0  0  0  0  0  0
   -0.7500    1.2990    0.0000 C   0  0  0  0  0  0  0  0  0  0  0  0
    0.7500    1.2990    0.0000 C   0  0  0  0  0  0  0  0  0  0  0  0
  1  2  2  0
  2  3  1  0
  2  4  1  0
  4  5  1  0
  5  6  2  0
  6  7  1  0
  7  8  1  0
  7  9  2  0
  9 10  1  0
 10  4  2  0
M  END
>  <compound_id>  (43) 
DPC0043

>  <smiles>  (43) 
O=C(O)c1ccc(Cl)cc1

>  <patent_id>  (43) 
DEMO-101-A1

>  <assignee>  (43) 
Northstar Therapeutics

>  <publication_date>  (43) 
2022-03-17

>  <year>  (43) 
2022

>  <series>  (43) 
phenyl

>  <assay_id>  (43) 
ASSAY-01-08

>  <standard_relation>  (43) 
=

>  <pIC50>  (43) 
5.7

>  <project_note>  (43) 
primary measurement

>  <source_row>  (43) 
43

>  <status>  (43) 
accepted

>  <duplicate_group_size>  (43) 
1

>  <source_rows>  (43) 
43

>  <patent_ids>  (43) 
DEMO-101-A1

>  <assignees>  (43) 
Northstar Therapeutics

>  <molecular_weight>  (43) 
156.568

>  <clogp>  (43) 
2.038

>  <tpsa>  (43) 
37.3

>  <hbd>  (43) 
1

>  <hba>  (43) 
1

>  <rotatable_bonds>  (43) 
1

>  <heavy_atoms>  (43) 
10

>  <rings>  (43) 
1

>  <pIC50_median>  (43) 
5.7

>  <n_measurements>  (43) 
1.0

>  <murcko_scaffold>  (43) 
c1ccccc1

>  <scaffold_id>  (43) 
S001

>  <cluster_id>  (43) 
C035

$$$$
DPC0044
     RDKit          2D

  8  8  0  0  0  0  0  0  0  0999 V2000
    3.0000    0.0000    0.0000 Br  0  0  0  0  0  0  0  0  0  0  0  0
    1.5000    0.0000    0.0000 C   0  0  0  0  0  0  0  0  0  0  0  0
    0.7500   -1.2990    0.0000 C   0  0  0  0  0  0  0  0  0  0  0  0
   -0.7500   -1.2990    0.0000 C   0  0  0  0  0  0  0  0  0  0  0  0
   -1.5000    0.0000    0.0000 C   0  0  0  0  0  0  0  0  0  0  0  0
   -3.0000    0.0000    0.0000 Br  0  0  0  0  0  0  0  0  0  0  0  0
   -0.7500    1.2990    0.0000 C   0  0  0  0  0  0  0  0  0  0  0  0
    0.7500    1.2990    0.0000 C   0  0  0  0  0  0  0  0  0  0  0  0
  1  2  1  0
  2  3  1  0
  3  4  2  0
  4  5  1  0
  5  6  1  0
  5  7  2  0
  7  8  1  0
  8  2  2  0
M  END
>  <compound_id>  (44) 
DPC0044

>  <smiles>  (44) 
Brc1ccc(Br)cc1

>  <patent_id>  (44) 
DEMO-101-A1

>  <assignee>  (44) 
Northstar Therapeutics

>  <publication_date>  (44) 
2022-03-17

>  <year>  (44) 
2022

>  <series>  (44) 
phenyl

>  <assay_id>  (44) 
ASSAY-01-09

>  <standard_relation>  (44) 
=

>  <pIC50>  (44) 
5.74

>  <project_note>  (44) 
primary measurement

>  <source_row>  (44) 
44

>  <status>  (44) 
accepted

>  <duplicate_group_size>  (44) 
1

>  <source_rows>  (44) 
44

>  <patent_ids>  (44) 
DEMO-101-A1

>  <assignees>  (44) 
Northstar Therapeutics

>  <molecular_weight>  (44) 
235.906

>  <clogp>  (44) 
3.212

>  <tpsa>  (44) 
0.0

>  <hbd>  (44) 
0

>  <hba>  (44) 
0

>  <rotatable_bonds>  (44) 
0

>  <heavy_atoms>  (44) 
8

>  <rings>  (44) 
1

>  <pIC50_median>  (44) 
5.74

>  <n_measurements>  (44) 
1.0

>  <murcko_scaffold>  (44) 
c1ccccc1

>  <scaffold_id>  (44) 
S001

>  <cluster_id>  (44) 
C018

$$$$
DPC0045
     RDKit          2D

  8  8  0  0  0  0  0  0  0  0999 V2000
    3.0000    0.0000    0.0000 C   0  0  0  0  0  0  0  0  0  0  0  0
    1.5000    0.0000    0.0000 C   0  0  0  0  0  0  0  0  0  0  0  0
    0.7500   -1.2990    0.0000 C   0  0  0  0  0  0  0  0  0  0  0  0
   -0.7500   -1.2990    0.0000 C   0  0  0  0  0  0  0  0  0  0  0  0
   -1.5000    0.0000    0.0000 C   0  0  0  0  0  0  0  0  0  0  0  0
   -3.0000    0.0000    0.0000 Br  0  0  0  0  0  0  0  0  0  0  0  0
   -0.7500    1.2990    0.0000 C   0  0  0  0  0  0  0  0  0  0  0  0
    0.7500    1.2990    0.0000 C   0  0  0  0  0  0  0  0  0  0  0  0
  1  2  1  0
  2  3  1  0
  3  4  2  0
  4  5  1  0
  5  6  1  0
  5  7  2  0
  7  8  1  0
  8  2  2  0
M  END
>  <compound_id>  (45) 
DPC0045

>  <smiles>  (45) 
Cc1ccc(Br)cc1

>  <patent_id>  (45) 
DEMO-101-A1

>  <assignee>  (45) 
Northstar Therapeutics

>  <publication_date>  (45) 
2022-03-17

>  <year>  (45) 
2022

>  <series>  (45) 
phenyl

>  <assay_id>  (45) 
ASSAY-01-10

>  <standard_relation>  (45) 
=

>  <pIC50>  (45) 
5.72

>  <project_note>  (45) 
primary measurement

>  <source_row>  (45) 
45

>  <status>  (45) 
accepted

>  <duplicate_group_size>  (45) 
1

>  <source_rows>  (45) 
45

>  <patent_ids>  (45) 
DEMO-101-A1

>  <assignees>  (45) 
Northstar Therapeutics

>  <molecular_weight>  (45) 
171.037

>  <clogp>  (45) 
2.758

>  <tpsa>  (45) 
0.0

>  <hbd>  (45) 
0

>  <hba>  (45) 
0

>  <rotatable_bonds>  (45) 
0

>  <heavy_atoms>  (45) 
8

>  <rings>  (45) 
1

>  <pIC50_median>  (45) 
5.72

>  <n_measurements>  (45) 
1.0

>  <murcko_scaffold>  (45) 
c1ccccc1

>  <scaffold_id>  (45) 
S001

>  <cluster_id>  (45) 
C017

$$$$
DPC0046
     RDKit          2D

  9  9  0  0  0  0  0  0  0  0999 V2000
    3.7500   -1.2990    0.0000 C   0  0  0  0  0  0  0  0  0  0  0  0
    3.0000    0.0000    0.0000 C   0  0  0  0  0  0  0  0  0  0  0  0
    1.5000    0.0000    0.0000 C   0  0  0  0  0  0  0  0  0  0  0  0
    0.7500   -1.2990    0.0000 C   0  0  0  0  0  0  0  0  0  0  0  0
   -0.7500   -1.2990    0.0000 C   0  0  0  0  0  0  0  0  0  0  0  0
   -1.5000    0.0000    0.0000 C   0  0  0  0  0  0  0  0  0  0  0  0
   -3.0000    0.0000    0.0000 Br  0  0  0  0  0  0  0  0  0  0  0  0
   -0.7500    1.2990    0.0000 C   0  0  0  0  0  0  0  0  0  0  0  0
    0.7500    1.2990    0.0000 C   0  0  0  0  0  0  0  0  0  0  0  0
  1  2  1  0
  2  3  1  0
  3  4  1  0
  4  5  2  0
  5  6  1  0
  6  7  1  0
  6  8  2  0
  8  9  1  0
  9  3  2  0
M  END
>  <compound_id>  (46) 
DPC0046

>  <smiles>  (46) 
CCc1ccc(Br)cc1

>  <patent_id>  (46) 
DEMO-101-A1

>  <assignee>  (46) 
Northstar Therapeutics

>  <publication_date>  (46) 
2022-03-17

>  <year>  (46) 
2022

>  <series>  (46) 
phenyl

>  <assay_id>  (46) 
ASSAY-01-11

>  <standard_relation>  (46) 
<

>  <pIC50>  (46) 
5.76

>  <project_note>  (46) 
primary measurement

>  <source_row>  (46) 
46

>  <status>  (46) 
accepted

>  <duplicate_group_size>  (46) 
1

>  <source_rows>  (46) 
46

>  <patent_ids>  (46) 
DEMO-101-A1

>  <assignees>  (46) 
Northstar Therapeutics

>  <molecular_weight>  (46) 
185.064

>  <clogp>  (46) 
3.012

>  <tpsa>  (46) 
0.0

>  <hbd>  (46) 
0

>  <hba>  (46) 
0

>  <rotatable_bonds>  (46) 
1

>  <heavy_atoms>  (46) 
9

>  <rings>  (46) 
1

>  <murcko_scaffold>  (46) 
c1ccccc1

>  <scaffold_id>  (46) 
S001

>  <cluster_id>  (46) 
C005

$$$$
DPC0047
     RDKit          2D

 10 10  0  0  0  0  0  0  0  0999 V2000
    5.2500   -1.2990    0.0000 C   0  0  0  0  0  0  0  0  0  0  0  0
    3.7500   -1.2990    0.0000 C   0  0  0  0  0  0  0  0  0  0  0  0
    3.0000    0.0000    0.0000 C   0  0  0  0  0  0  0  0  0  0  0  0
    1.5000    0.0000    0.0000 C   0  0  0  0  0  0  0  0  0  0  0  0
    0.7500   -1.2990    0.0000 C   0  0  0  0  0  0  0  0  0  0  0  0
   -0.7500   -1.2990    0.0000 C   0  0  0  0  0  0  0  0  0  0  0  0
   -1.5000    0.0000    0.0000 C   0  0  0  0  0  0  0  0  0  0  0  0
   -3.0000    0.0000    0.0000 Br  0  0  0  0  0  0  0  0  0  0  0  0
   -0.7500    1.2990    0.0000 C   0  0  0  0  0  0  0  0  0  0  0  0
    0.7500    1.2990    0.0000 C   0  0  0  0  0  0  0  0  0  0  0  0
  1  2  1  0
  2  3  1  0
  3  4  1  0
  4  5  1  0
  5  6  2  0
  6  7  1  0
  7  8  1  0
  7  9  2  0
  9 10  1  0
 10  4  2  0
M  END
>  <compound_id>  (47) 
DPC0047

>  <smiles>  (47) 
CCCc1ccc(Br)cc1

>  <patent_id>  (47) 
DEMO-101-A1

>  <assignee>  (47) 
Northstar Therapeutics

>  <publication_date>  (47) 
2022-03-17

>  <year>  (47) 
2022

>  <series>  (47) 
phenyl

>  <assay_id>  (47) 
ASSAY-01-12

>  <standard_relation>  (47) 
=

>  <pIC50>  (47) 
5.59

>  <project_note>  (47) 
primary measurement

>  <source_row>  (47) 
47

>  <status>  (47) 
accepted

>  <duplicate_group_size>  (47) 
1

>  <source_rows>  (47) 
47

>  <patent_ids>  (47) 
DEMO-101-A1

>  <assignees>  (47) 
Northstar Therapeutics

>  <molecular_weight>  (47) 
199.091

>  <clogp>  (47) 
3.402

>  <tpsa>  (47) 
0.0

>  <hbd>  (47) 
0

>  <hba>  (47) 
0

>  <rotatable_bonds>  (47) 
2

>  <heavy_atoms>  (47) 
10

>  <rings>  (47) 
1

>  <pIC50_median>  (47) 
5.59

>  <n_measurements>  (47) 
1.0

>  <murcko_scaffold>  (47) 
c1ccccc1

>  <scaffold_id>  (47) 
S001

>  <cluster_id>  (47) 
C002

$$$$
DPC0048
     RDKit          2D

  9  9  0  0  0  0  0  0  0  0999 V2000
    3.7500   -1.2990    0.0000 C   0  0  0  0  0  0  0  0  0  0  0  0
    3.0000    0.0000    0.0000 O   0  0  0  0  0  0  0  0  0  0  0  0
    1.5000    0.0000    0.0000 C   0  0  0  0  0  0  0  0  0  0  0  0
    0.7500   -1.2990    0.0000 C   0  0  0  0  0  0  0  0  0  0  0  0
   -0.7500   -1.2990    0.0000 C   0  0  0  0  0  0  0  0  0  0  0  0
   -1.5000    0.0000    0.0000 C   0  0  0  0  0  0  0  0  0  0  0  0
   -3.0000    0.0000    0.0000 Br  0  0  0  0  0  0  0  0  0  0  0  0
   -0.7500    1.2990    0.0000 C   0  0  0  0  0  0  0  0  0  0  0  0
    0.7500    1.2990    0.0000 C   0  0  0  0  0  0  0  0  0  0  0  0
  1  2  1  0
  2  3  1  0
  3  4  1  0
  4  5  2  0
  5  6  1  0
  6  7  1  0
  6  8  2  0
  8  9  1  0
  9  3  2  0
M  END
>  <compound_id>  (48) 
DPC0048

>  <smiles>  (48) 
COc1ccc(Br)cc1

>  <patent_id>  (48) 
DEMO-101-A1

>  <assignee>  (48) 
Northstar Therapeutics

>  <publication_date>  (48) 
2022-03-17

>  <year>  (48) 
2022

>  <series>  (48) 
phenyl

>  <assay_id>  (48) 
ASSAY-01-01

>  <standard_relation>  (48) 
=

>  <pIC50>  (48) 
5.58

>  <project_note>  (48) 
primary measurement

>  <source_row>  (48) 
48

>  <status>  (48) 
accepted

>  <duplicate_group_size>  (48) 
1

>  <source_rows>  (48) 
48

>  <patent_ids>  (48) 
DEMO-101-A1

>  <assignees>  (48) 
Northstar Therapeutics

>  <molecular_weight>  (48) 
187.036

>  <clogp>  (48) 
2.458

>  <tpsa>  (48) 
9.23

>  <hbd>  (48) 
0

>  <hba>  (48) 
1

>  <rotatable_bonds>  (48) 
1

>  <heavy_atoms>  (48) 
9

>  <rings>  (48) 
1

>  <pIC50_median>  (48) 
5.58

>  <n_measurements>  (48) 
1.0

>  <murcko_scaffold>  (48) 
c1ccccc1

>  <scaffold_id>  (48) 
S001

>  <cluster_id>  (48) 
C004

$$$$
DPC0049
     RDKit          2D

 10 10  0  0  0  0  0  0  0  0999 V2000
    5.2500   -1.2990    0.0000 C   0  0  0  0  0  0  0  0  0  0  0  0
    3.7500   -1.2990    0.0000 C   0  0  0  0  0  0  0  0  0  0  0  0
    3.0000    0.0000    0.0000 O   0  0  0  0  0  0  0  0  0  0  0  0
    1.5000    0.0000    0.0000 C   0  0  0  0  0  0  0  0  0  0  0  0
    0.7500   -1.2990    0.0000 C   0  0  0  0  0  0  0  0  0  0  0  0
   -0.7500   -1.2990    0.0000 C   0  0  0  0  0  0  0  0  0  0  0  0
   -1.5000    0.0000    0.0000 C   0  0  0  0  0  0  0  0  0  0  0  0
   -3.0000    0.0000    0.0000 Br  0  0  0  0  0  0  0  0  0  0  0  0
   -0.7500    1.2990    0.0000 C   0  0  0  0  0  0  0  0  0  0  0  0
    0.7500    1.2990    0.0000 C   0  0  0  0  0  0  0  0  0  0  0  0
  1  2  1  0
  2  3  1  0
  3  4  1  0
  4  5  1  0
  5  6  2  0
  6  7  1  0
  7  8  1  0
  7  9  2  0
  9 10  1  0
 10  4  2  0
M  END
>  <compound_id>  (49) 
DPC0049

>  <smiles>  (49) 
CCOc1ccc(Br)cc1

>  <patent_id>  (49) 
DEMO-101-A1

>  <assignee>  (49) 
Northstar Therapeutics

>  <publication_date>  (49) 
2022-03-17

>  <year>  (49) 
2022

>  <series>  (49) 
phenyl

>  <assay_id>  (49) 
ASSAY-01-02

>  <standard_relation>  (49) 
=

>  <pIC50>  (49) 
5.53

>  <project_note>  (49) 
primary measurement

>  <source_row>  (49) 
49

>  <status>  (49) 
accepted

>  <duplicate_group_size>  (49) 
1

>  <source_rows>  (49) 
49

>  <patent_ids>  (49) 
DEMO-101-A1

>  <assignees>  (49) 
Northstar Therapeutics

>  <molecular_weight>  (49) 
201.063

>  <clogp>  (49) 
2.848

>  <tpsa>  (49) 
9.23

>  <hbd>  (49) 
0

>  <hba>  (49) 
1

>  <rotatable_bonds>  (49) 
2

>  <heavy_atoms>  (49) 
10

>  <rings>  (49) 
1

>  <pIC50_median>  (49) 
5.53

>  <n_measurements>  (49) 
1.0

>  <murcko_scaffold>  (49) 
c1ccccc1

>  <scaffold_id>  (49) 
S001

>  <cluster_id>  (49) 
C001

$$$$
DPC0050
     RDKit          2D

  8  8  0  0  0  0  0  0  0  0999 V2000
    3.0000    0.0000    0.0000 N   0  0  0  0  0  0  0  0  0  0  0  0
    1.5000    0.0000    0.0000 C   0  0  0  0  0  0  0  0  0  0  0  0
    0.7500   -1.2990    0.0000 C   0  0  0  0  0  0  0  0  0  0  0  0
   -0.7500   -1.2990    0.0000 C   0  0  0  0  0  0  0  0  0  0  0  0
   -1.5000    0.0000    0.0000 C   0  0  0  0  0  0  0  0  0  0  0  0
   -3.0000    0.0000    0.0000 Br  0  0  0  0  0  0  0  0  0  0  0  0
   -0.7500    1.2990    0.0000 C   0  0  0  0  0  0  0  0  0  0  0  0
    0.7500    1.2990    0.0000 C   0  0  0  0  0  0  0  0  0  0  0  0
  1  2  1  0
  2  3  1  0
  3  4  2  0
  4  5  1  0
  5  6  1  0
  5  7  2  0
  7  8  1  0
  8  2  2  0
M  END
>  <compound_id>  (50) 
DPC0050

>  <smiles>  (50) 
Nc1ccc(Br)cc1

>  <patent_id>  (50) 
DEMO-101-A1

>  <assignee>  (50) 
Northstar Therapeutics

>  <publication_date>  (50) 
2022-03-17

>  <year>  (50) 
2022

>  <series>  (50) 
phenyl

>  <assay_id>  (50) 
ASSAY-01-03

>  <standard_relation>  (50) 
=

>  <pIC50>  (50) 
5.41

>  <project_note>  (50) 
primary measurement

>  <source_row>  (50) 
50

>  <status>  (50) 
accepted

>  <duplicate_group_size>  (50) 
1

>  <source_rows>  (50) 
50

>  <patent_ids>  (50) 
DEMO-101-A1

>  <assignees>  (50) 
Northstar Therapeutics

>  <molecular_weight>  (50) 
172.025

>  <clogp>  (50) 
2.031

>  <tpsa>  (50) 
26.02

>  <hbd>  (50) 
1

>  <hba>  (50) 
1

>  <rotatable_bonds>  (50) 
0

>  <heavy_atoms>  (50) 
8

>  <rings>  (50) 
1

>  <pIC50_median>  (50) 
5.41

>  <n_measurements>  (50) 
1.0

>  <murcko_scaffold>  (50) 
c1ccccc1

>  <scaffold_id>  (50) 
S001

>  <cluster_id>  (50) 
C015

$$$$
DPC0051
     RDKit          2D

  9  9  0  0  0  0  0  0  0  0999 V2000
    3.7500   -1.2990    0.0000 C   0  0  0  0  0  0  0  0  0  0  0  0
    3.0000    0.0000    0.0000 N   0  0  0  0  0  0  0  0  0  0  0  0
    1.5000    0.0000    0.0000 C   0  0  0  0  0  0  0  0  0  0  0  0
    0.7500   -1.2990    0.0000 C   0  0  0  0  0  0  0  0  0  0  0  0
   -0.7500   -1.2990    0.0000 C   0  0  0  0  0  0  0  0  0  0  0  0
   -1.5000    0.0000    0.0000 C   0  0  0  0  0  0  0  0  0  0  0  0
   -3.0000    0.0000    0.0000 Br  0  0  0  0  0  0  0  0  0  0  0  0
   -0.7500    1.2990    0.0000 C   0  0  0  0  0  0  0  0  0  0  0  0
    0.7500    1.2990    0.0000 C   0  0  0  0  0  0  0  0  0  0  0  0
  1  2  1  0
  2  3  1  0
  3  4  1  0
  4  5  2  0
  5  6  1  0
  6  7  1  0
  6  8  2  0
  8  9  1  0
  9  3  2  0
M  END
>  <compound_id>  (51) 
DPC0051

>  <smiles>  (51) 
CNc1ccc(Br)cc1

>  <patent_id>  (51) 
DEMO-101-A1

>  <assignee>  (51) 
Northstar Therapeutics

>  <publication_date>  (51) 
2022-03-17

>  <year>  (51) 
2022

>  <series>  (51) 
phenyl

>  <assay_id>  (51) 
ASSAY-01-04

>  <standard_relation>  (51) 
=

>  <pIC50>  (51) 
5.55

>  <project_note>  (51) 
primary measurement

>  <source_row>  (51) 
51

>  <status>  (51) 
accepted

>  <duplicate_group_size>  (51) 
1

>  <source_rows>  (51) 
51

>  <patent_ids>  (51) 
DEMO-101-A1

>  <assignees>  (51) 
Northstar Therapeutics

>  <molecular_weight>  (51) 
186.052

>  <clogp>  (51) 
2.491

>  <tpsa>  (51) 
12.03

>  <hbd>  (51) 
1

>  <hba>  (51) 
1

>  <rotatable_bonds>  (51) 
1

>  <heavy_atoms>  (51) 
9

>  <rings>  (51) 
1

>  <pIC50_median>  (51) 
5.55

>  <n_measurements>  (51) 
1.0

>  <murcko_scaffold>  (51) 
c1ccccc1

>  <scaffold_id>  (51) 
S001

>  <cluster_id>  (51) 
C008

$$$$
DPC0052
     RDKit          2D

 10 10  0  0  0  0  0  0  0  0999 V2000
    3.7500   -1.2990    0.0000 C   0  0  0  0  0  0  0  0  0  0  0  0
    3.0000    0.0000    0.0000 N   0  0  0  0  0  0  0  0  0  0  0  0
    3.7500    1.2990    0.0000 C   0  0  0  0  0  0  0  0  0  0  0  0
    1.5000    0.0000    0.0000 C   0  0  0  0  0  0  0  0  0  0  0  0
    0.7500   -1.2990    0.0000 C   0  0  0  0  0  0  0  0  0  0  0  0
   -0.7500   -1.2990    0.0000 C   0  0  0  0  0  0  0  0  0  0  0  0
   -1.5000    0.0000    0.0000 C   0  0  0  0  0  0  0  0  0  0  0  0
   -3.0000    0.0000    0.0000 Br  0  0  0  0  0  0  0  0  0  0  0  0
   -0.7500    1.2990    0.0000 C   0  0  0  0  0  0  0  0  0  0  0  0
    0.7500    1.2990    0.0000 C   0  0  0  0  0  0  0  0  0  0  0  0
  1  2  1  0
  2  3  1  0
  2  4  1  0
  4  5  1  0
  5  6  2  0
  6  7  1  0
  7  8  1  0
  7  9  2  0
  9 10  1  0
 10  4  2  0
M  END
>  <compound_id>  (52) 
DPC0052

>  <smiles>  (52) 
CN(C)c1ccc(Br)cc1

>  <patent_id>  (52) 
DEMO-101-A1

>  <assignee>  (52) 
Northstar Therapeutics

>  <publication_date>  (52) 
2022-03-17

>  <year>  (52) 
2022

>  <series>  (52) 
phenyl

>  <assay_id>  (52) 
ASSAY-01-05

>  <standard_relation>  (52) 
=

>  <pIC50>  (52) 
5.74

>  <project_note>  (52) 
primary measurement

>  <source_row>  (52) 
52

>  <status>  (52) 
accepted

>  <duplicate_group_size>  (52) 
1

>  <source_rows>  (52) 
52

>  <patent_ids>  (52) 
DEMO-101-A1

>  <assignees>  (52) 
Northstar Therapeutics

>  <molecular_weight>  (52) 
200.079

>  <clogp>  (52) 
2.515

>  <tpsa>  (52) 
3.24

>  <hbd>  (52) 
0

>  <hba>  (52) 
1

>  <rotatable_bonds>  (52) 
1

>  <heavy_atoms>  (52) 
10

>  <rings>  (52) 
1

>  <pIC50_median>  (52) 
5.74

>  <n_measurements>  (52) 
1.0

>  <murcko_scaffold>  (52) 
c1ccccc1

>  <scaffold_id>  (52) 
S001

>  <cluster_id>  (52) 
C007

$$$$
DPC0053
     RDKit          2D

  9  9  0  0  0  0  0  0  0  0999 V2000
    4.5000    0.0000    0.0000 N   0  0  0  0  0  0  0  0  0  0  0  0
    3.0000    0.0000    0.0000 C   0  0  0  0  0  0  0  0  0  0  0  0
    1.5000    0.0000    0.0000 C   0  0  0  0  0  0  0  0  0  0  0  0
    0.7500   -1.2990    0.0000 C   0  0  0  0  0  0  0  0  0  0  0  0
   -0.7500   -1.2990    0.0000 C   0  0  0  0  0  0  0  0  0  0  0  0
   -1.5000    0.0000    0.0000 C   0  0  0  0  0  0  0  0  0  0  0  0
   -3.0000    0.0000    0.0000 Br  0  0  0  0  0  0  0  0  0  0  0  0
   -0.7500    1.2990    0.0000 C   0  0  0  0  0  0  0  0  0  0  0  0
    0.7500    1.2990    0.0000 C   0  0  0  0  0  0  0  0  0  0  0  0
  1  2  3  0
  2  3  1  0
  3  4  1  0
  4  5  2  0
  5  6  1  0
  6  7  1  0
  6  8  2  0
  8  9  1  0
  9  3  2  0
M  END
>  <compound_id>  (53) 
DPC0053

>  <smiles>  (53) 
N#Cc1ccc(Br)cc1

>  <patent_id>  (53) 
DEMO-101-A1

>  <assignee>  (53) 
Northstar Therapeutics

>  <publication_date>  (53) 
2022-03-17

>  <year>  (53) 
2022

>  <series>  (53) 
phenyl

>  <assay_id>  (53) 
ASSAY-01-06

>  <standard_relation>  (53) 
=

>  <pIC50>  (53) 
5.91

>  <project_note>  (53) 
primary measurement

>  <source_row>  (53) 
53

>  <status>  (53) 
accepted

>  <duplicate_group_size>  (53) 
1

>  <source_rows>  (53) 
53

>  <patent_ids>  (53) 
DEMO-101-A1

>  <assignees>  (53) 
Northstar Therapeutics

>  <molecular_weight>  (53) 
182.02

>  <clogp>  (53) 
2.321

>  <tpsa>  (53) 
23.79

>  <hbd>  (53) 
0

>  <hba>  (53) 
1

>  <rotatable_bonds>  (53) 
0

>  <heavy_atoms>  (53) 
9

>  <rings>  (53) 
1

>  <pIC50_median>  (53) 
5.91

>  <n_measurements>  (53) 
1.0

>  <murcko_scaffold>  (53) 
c1ccccc1

>  <scaffold_id>  (53) 
S001

>  <cluster_id>  (53) 
C009

$$$$
DPC0054
     RDKit          2D

 11 11  0  0  0  0  0  0  0  0999 V2000
    4.5000    0.0000    0.0000 F   0  0  0  0  0  0  0  0  0  0  0  0
    3.0000    0.0000    0.0000 C   0  0  0  0  0  0  0  0  0  0  0  0
    3.0000   -1.5000    0.0000 F   0  0  0  0  0  0  0  0  0  0  0  0
    3.0000    1.5000    0.0000 F   0  0  0  0  0  0  0  0  0  0  0  0
    1.5000    0.0000    0.0000 C   0  0  0  0  0  0  0  0  0  0  0  0
    0.7500   -1.2990    0.0000 C   0  0  0  0  0  0  0  0  0  0  0  0
   -0.7500   -1.2990    0.0000 C   0  0  0  0  0  0  0  0  0  0  0  0
   -1.5000    0.0000    0.0000 C   0  0  0  0  0  0  0  0  0  0  0  0
   -3.0000    0.0000    0.0000 Br  0  0  0  0  0  0  0  0  0  0  0  0
   -0.7500    1.2990    0.0000 C   0  0  0  0  0  0  0  0  0  0  0  0
    0.7500    1.2990    0.0000 C   0  0  0  0  0  0  0  0  0  0  0  0
  1  2  1  0
  2  3  1  0
  2  4  1  0
  2  5  1  0
  5  6  1  0
  6  7  2  0
  7  8  1  0
  8  9  1  0
  8 10  2  0
 10 11  1  0
 11  5  2  0
M  END
>  <compound_id>  (54) 
DPC0054

>  <smiles>  (54) 
FC(F)(F)c1ccc(Br)cc1

>  <patent_id>  (54) 
DEMO-101-A1

>  <assignee>  (54) 
Northstar Therapeutics

>  <publication_date>  (54) 
2022-03-17

>  <year>  (54) 
2022

>  <series>  (54) 
phenyl

>  <assay_id>  (54) 
ASSAY-01-07

>  <standard_relation>  (54) 
=

>  <pIC50>  (54) 
5.87

>  <project_note>  (54) 
primary measurement

>  <source_row>  (54) 
54

>  <status>  (54) 
accepted

>  <duplicate_group_size>  (54) 
1

>  <source_rows>  (54) 
54

>  <patent_ids>  (54) 
DEMO-101-A1

>  <assignees>  (54) 
Northstar Therapeutics

>  <molecular_weight>  (54) 
225.007

>  <clogp>  (54) 
3.468

>  <tpsa>  (54) 
0.0

>  <hbd>  (54) 
0

>  <hba>  (54) 
0

>  <rotatable_bonds>  (54) 
0

>  <heavy_atoms>  (54) 
11

>  <rings>  (54) 
1

>  <pIC50_median>  (54) 
5.87

>  <n_measurements>  (54) 
1.0

>  <murcko_scaffold>  (54) 
c1ccccc1

>  <scaffold_id>  (54) 
S001

>  <cluster_id>  (54) 
C006

$$$$
DPC0055
     RDKit          2D

 10 10  0  0  0  0  0  0  0  0999 V2000
    3.7500   -1.2990    0.0000 N   0  0  0  0  0  0  0  0  0  0  0  0
    3.0000    0.0000    0.0000 C   0  0  0  0  0  0  0  0  0  0  0  0
    3.7500    1.2990    0.0000 O   0  0  0  0  0  0  0  0  0  0  0  0
    1.5000    0.0000    0.0000 C   0  0  0  0  0  0  0  0  0  0  0  0
    0.7500   -1.2990    0.0000 C   0  0  0  0  0  0  0  0  0  0  0  0
   -0.7500   -1.2990    0.0000 C   0  0  0  0  0  0  0  0  0  0  0  0
   -1.5000    0.0000    0.0000 C   0  0  0  0  0  0  0  0  0  0  0  0
   -3.0000    0.0000    0.0000 Br  0  0  0  0  0  0  0  0  0  0  0  0
   -0.7500    1.2990    0.0000 C   0  0  0  0  0  0  0  0  0  0  0  0
    0.7500    1.2990    0.0000 C   0  0  0  0  0  0  0  0  0  0  0  0
  1  2  1  0
  2  3  2  0
  2  4  1  0
  4  5  1  0
  5  6  2  0
  6  7  1  0
  7  8  1  0
  7  9  2  0
  9 10  1  0
 10  4  2  0
M  END
>  <compound_id>  (55) 
DPC0055

>  <smiles>  (55) 
NC(=O)c1ccc(Br)cc1

>  <patent_id>  (55) 
DEMO-102-A1

>  <assignee>  (55) 
Helixbridge Pharma

>  <publication_date>  (55) 
2022-10-06

>  <year>  (55) 
2022

>  <series>  (55) 
phenyl

>  <assay_id>  (55) 
ASSAY-02-08

>  <standard_relation>  (55) 
=

>  <pIC50>  (55) 
5.94

>  <project_note>  (55) 
primary measurement

>  <source_row>  (55) 
55

>  <status>  (55) 
accepted

>  <duplicate_group_size>  (55) 
2

>  <source_rows>  (55) 
55 | 217

>  <patent_ids>  (55) 
DEMO-101-A1 | DEMO-102-A1

>  <assignees>  (55) 
Helixbridge Pharma | Northstar Therapeutics

>  <molecular_weight>  (55) 
200.035

>  <clogp>  (55) 
1.548

>  <tpsa>  (55) 
43.09

>  <hbd>  (55) 
1

>  <hba>  (55) 
1

>  <rotatable_bonds>  (55) 
1

>  <heavy_atoms>  (55) 
10

>  <rings>  (55) 
1

>  <pIC50_median>  (55) 
5.925000000000001

>  <n_measurements>  (55) 
2.0

>  <murcko_scaffold>  (55) 
c1ccccc1

>  <scaffold_id>  (55) 
S001

>  <cluster_id>  (55) 
C003

$$$$
DPC0056
     RDKit          2D

 11 11  0  0  0  0  0  0  0  0999 V2000
    5.2500   -1.2990    0.0000 C   0  0  0  0  0  0  0  0  0  0  0  0
    3.7500   -1.2990    0.0000 N   0  0  0  0  0  0  0  0  0  0  0  0
    3.0000    0.0000    0.0000 C   0  0  0  0  0  0  0  0  0  0  0  0
    3.7500    1.2990    0.0000 O   0  0  0  0  0  0  0  0  0  0  0  0
    1.5000    0.0000    0.0000 C   0  0  0  0  0  0  0  0  0  0  0  0
    0.7500   -1.2990    0.0000 C   0  0  0  0  0  0  0  0  0  0  0  0
   -0.7500   -1.2990    0.0000 C   0  0  0  0  0  0  0  0  0  0  0  0
   -1.5000    0.0000    0.0000 C   0  0  0  0  0  0  0  0  0  0  0  0
   -3.0000    0.0000    0.0000 Br  0  0  0  0  0  0  0  0  0  0  0  0
   -0.7500    1.2990    0.0000 C   0  0  0  0  0  0  0  0  0  0  0  0
    0.7500    1.2990    0.0000 C   0  0  0  0  0  0  0  0  0  0  0  0
  1  2  1  0
  2  3  1  0
  3  4  2  0
  3  5  1  0
  5  6  1  0
  6  7  2  0
  7  8  1  0
  8  9  1  0
  8 10  2  0
 10 11  1  0
 11  5  2  0
M  END
>  <compound_id>  (56) 
DPC0056

>  <smiles>  (56) 
CNC(=O)c1ccc(Br)cc1

>  <patent_id>  (56) 
DEMO-102-A1

>  <assignee>  (56) 
Helixbridge Pharma

>  <publication_date>  (56) 
2022-10-06

>  <year>  (56) 
2022

>  <series>  (56) 
phenyl

>  <assay_id>  (56) 
ASSAY-02-09

>  <standard_relation>  (56) 
=

>  <pIC50>  (56) 
5.9

>  <project_note>  (56) 
primary measurement

>  <source_row>  (56) 
56

>  <status>  (56) 
accepted

>  <duplicate_group_size>  (56) 
2

>  <source_rows>  (56) 
56 | 218

>  <patent_ids>  (56) 
DEMO-101-A1 | DEMO-102-A1

>  <assignees>  (56) 
Helixbridge Pharma | Northstar Therapeutics

>  <molecular_weight>  (56) 
214.062

>  <clogp>  (56) 
1.809

>  <tpsa>  (56) 
29.1

>  <hbd>  (56) 
1

>  <hba>  (56) 
1

>  <rotatable_bonds>  (56) 
1

>  <heavy_atoms>  (56) 
11

>  <rings>  (56) 
1

>  <pIC50_median>  (56) 
5.94

>  <n_measurements>  (56) 
2.0

>  <murcko_scaffold>  (56) 
c1ccccc1

>  <scaffold_id>  (56) 
S001

>  <cluster_id>  (56) 
C010

$$$$
DPC0057
     RDKit          2D

 11 11  0  0  0  0  0  0  0  0999 V2000
    4.5000    0.0000    0.0000 N   0  0  0  0  0  0  0  0  0  0  0  0
    3.0000    0.0000    0.0000 S   0  0  0  0  0  0  0  0  0  0  0  0
    3.0000   -1.5000    0.0000 O   0  0  0  0  0  0  0  0  0  0  0  0
    3.0000    1.5000    0.0000 O   0  0  0  0  0  0  0  0  0  0  0  0
    1.5000    0.0000    0.0000 C   0  0  0  0  0  0  0  0  0  0  0  0
    0.7500   -1.2990    0.0000 C   0  0  0  0  0  0  0  0  0  0  0  0
   -0.7500   -1.2990    0.0000 C   0  0  0  0  0  0  0  0  0  0  0  0
   -1.5000    0.0000    0.0000 C   0  0  0  0  0  0  0  0  0  0  0  0
   -3.0000    0.0000    0.0000 Br  0  0  0  0  0  0  0  0  0  0  0  0
   -0.7500    1.2990    0.0000 C   0  0  0  0  0  0  0  0  0  0  0  0
    0.7500    1.2990    0.0000 C   0  0  0  0  0  0  0  0  0  0  0  0
  1  2  1  0
  2  3  2  0
  2  4  2  0
  2  5  1  0
  5  6  1  0
  6  7  2  0
  7  8  1  0
  8  9  1  0
  8 10  2  0
 10 11  1  0
 11  5  2  0
M  END
>  <compound_id>  (57) 
DPC0057

>  <smiles>  (57) 
NS(=O)(=O)c1ccc(Br)cc1

>  <patent_id>  (57) 
DEMO-102-A1

>  <assignee>  (57) 
Helixbridge Pharma

>  <publication_date>  (57) 
2022-10-06

>  <year>  (57) 
2022

>  <series>  (57) 
phenyl

>  <assay_id>  (57) 
ASSAY-02-10

>  <standard_relation>  (57) 
=

>  <pIC50>  (57) 
5.7

>  <project_note>  (57) 
primary measurement

>  <source_row>  (57) 
57

>  <status>  (57) 
accepted

>  <duplicate_group_size>  (57) 
2

>  <source_rows>  (57) 
57 | 219

>  <patent_ids>  (57) 
DEMO-101-A1 | DEMO-102-A1

>  <assignees>  (57) 
Helixbridge Pharma | Northstar Therapeutics

>  <molecular_weight>  (57) 
236.09

>  <clogp>  (57) 
1.097

>  <tpsa>  (57) 
60.16

>  <hbd>  (57) 
1

>  <hba>  (57) 
2

>  <rotatable_bonds>  (57) 
1

>  <heavy_atoms>  (57) 
11

>  <rings>  (57) 
1

>  <pIC50_median>  (57) 
5.75

>  <n_measurements>  (57) 
2.0

>  <murcko_scaffold>  (57) 
c1ccccc1

>  <scaffold_id>  (57) 
S001

>  <cluster_id>  (57) 
C014

$$$$
DPC0058
     RDKit          2D

 12 12  0  0  0  0  0  0  0  0999 V2000
    4.5000   -2.5981    0.0000 F   0  0  0  0  0  0  0  0  0  0  0  0
    3.7500   -1.2990    0.0000 C   0  0  0  0  0  0  0  0  0  0  0  0
    5.0490   -0.5490    0.0000 F   0  0  0  0  0  0  0  0  0  0  0  0
    2.4510   -2.0490    0.0000 F   0  0  0  0  0  0  0  0  0  0  0  0
    3.0000    0.0000    0.0000 O   0  0  0  0  0  0  0  0  0  0  0  0
    1.5000    0.0000    0.0000 C   0  0  0  0  0  0  0  0  0  0  0  0
    0.7500   -1.2990    0.0000 C   0  0  0  0  0  0  0  0  0  0  0  0
   -0.7500   -1.2990    0.0000 C   0  0  0  0  0  0  0  0  0  0  0  0
   -1.5000    0.0000    0.0000 C   0  0  0  0  0  0  0  0  0  0  0  0
   -3.0000    0.0000    0.0000 Br  0  0  0  0  0  0  0  0  0  0  0  0
   -0.7500    1.2990    0.0000 C   0  0  0  0  0  0  0  0  0  0  0  0
    0.7500    1.2990    0.0000 C   0  0  0  0  0  0  0  0  0  0  0  0
  1  2  1  0
  2  3  1  0
  2  4  1  0
  2  5  1  0
  5  6  1  0
  6  7  1  0
  7  8  2  0
  8  9  1  0
  9 10  1  0
  9 11  2  0
 11 12  1  0
 12  6  2  0
M  END
>  <compound_id>  (58) 
DPC0058

>  <smiles>  (58) 
FC(F)(F)Oc1ccc(Br)cc1

>  <patent_id>  (58) 
DEMO-102-A1

>  <assignee>  (58) 
Helixbridge Pharma

>  <publication_date>  (58) 
2022-10-06

>  <year>  (58) 
2022

>  <series>  (58) 
phenyl

>  <assay_id>  (58) 
ASSAY-02-11

>  <standard_relation>  (58) 
=

>  <pIC50>  (58) 
5.69

>  <project_note>  (58) 
primary measurement

>  <source_row>  (58) 
58

>  <status>  (58) 
accepted

>  <duplicate_group_size>  (58) 
2

>  <source_rows>  (58) 
58 | 220

>  <patent_ids>  (58) 
DEMO-101-A1 | DEMO-102-A1

>  <assignees>  (58) 
Helixbridge Pharma | Northstar Therapeutics

>  <molecular_weight>  (58) 
241.006

>  <clogp>  (58) 
3.348

>  <tpsa>  (58) 
9.23

>  <hbd>  (58) 
0

>  <hba>  (58) 
1

>  <rotatable_bonds>  (58) 
1

>  <heavy_atoms>  (58) 
12

>  <rings>  (58) 
1

>  <pIC50_median>  (58) 
5.695

>  <n_measurements>  (58) 
2.0

>  <murcko_scaffold>  (58) 
c1ccccc1

>  <scaffold_id>  (58) 
S001

>  <cluster_id>  (58) 
C013

$$$$
DPC0059
     RDKit          2D

 13 14  0  0  0  0  0  0  0  0999 V2000
    3.0000    0.0000    0.0000 Br  0  0  0  0  0  0  0  0  0  0  0  0
    1.5000    0.0000    0.0000 C   0  0  0  0  0  0  0  0  0  0  0  0
    0.7500   -1.2990    0.0000 C   0  0  0  0  0  0  0  0  0  0  0  0
   -0.7500   -1.2990    0.0000 C   0  0  0  0  0  0  0  0  0  0  0  0
   -1.5000    0.0000    0.0000 C   0  0  0  0  0  0  0  0  0  0  0  0
   -3.0000    0.0000    0.0000 N   0  0  0  0  0  0  0  0  0  0  0  0
   -3.7500    1.2990    0.0000 C   0  0  0  0  0  0  0  0  0  0  0  0
   -5.2500    1.2990    0.0000 C   0  0  0  0  0  0  0  0  0  0  0  0
   -6.0000    0.0000    0.0000 O   0  0  0  0  0  0  0  0  0  0  0  0
   -5.2500   -1.2990    0.0000 C   0  0  0  0  0  0  0  0  0  0  0  0
   -3.7500   -1.2990    0.0000 C   0  0  0  0  0  0  0  0  0  0  0  0
   -0.7500    1.2990    0.0000 C   0  0  0  0  0  0  0  0  0  0  0  0
    0.7500    1.2990    0.0000 C   0  0  0  0  0  0  0  0  0  0  0  0
  1  2  1  0
  2  3  1  0
  3  4  2  0
  4  5  1  0
  5  6  1  0
  6  7  1  0
  7  8  1  0
  8  9  1  0
  9 10  1  0
 10 11  1  0
  5 12  2  0
 12 13  1  0
 13  2  2  0
 11  6  1  0
M  END
>  <compound_id>  (59) 
DPC0059

>  <smiles>  (59) 
Brc1ccc(N2CCOCC2)cc1

>  <patent_id>  (59) 
DEMO-102-A1

>  <assignee>  (59) 
Helixbridge Pharma

>  <publication_date>  (59) 
2022-10-06

>  <year>  (59) 
2022

>  <series>  (59) 
phenyl

>  <assay_id>  (59) 
ASSAY-02-12

>  <standard_relation>  (59) 
=

>  <pIC50>  (59) 
5.95

>  <project_note>  (59) 
primary measurement

>  <source_row>  (59) 
59

>  <status>  (59) 
accepted

>  <duplicate_group_size>  (59) 
2

>  <source_rows>  (59) 
59 | 221

>  <patent_ids>  (59) 
DEMO-101-A1 | DEMO-102-A1

>  <assignees>  (59) 
Helixbridge Pharma | Northstar Therapeutics

>  <molecular_weight>  (59) 
242.116

>  <clogp>  (59) 
2.286

>  <tpsa>  (59) 
12.47

>  <hbd>  (59) 
0

>  <hba>  (59) 
2

>  <rotatable_bonds>  (59) 
1

>  <heavy_atoms>  (59) 
13

>  <rings>  (59) 
2

>  <pIC50_median>  (59) 
5.890000000000001

>  <n_measurements>  (59) 
2.0

>  <murcko_scaffold>  (59) 
c1ccc(N2CCOCC2)cc1

>  <scaffold_id>  (59) 
S002

>  <cluster_id>  (59) 
C011

$$$$
DPC0060
     RDKit          2D

 10 11  0  0  0  0  0  0  0  0999 V2000
    3.0000    0.0000    0.0000 Br  0  0  0  0  0  0  0  0  0  0  0  0
    1.5000    0.0000    0.0000 C   0  0  0  0  0  0  0  0  0  0  0  0
    0.7500   -1.2990    0.0000 C   0  0  0  0  0  0  0  0  0  0  0  0
   -0.7500   -1.2990    0.0000 C   0  0  0  0  0  0  0  0  0  0  0  0
   -1.5000    0.0000    0.0000 C   0  0  0  0  0  0  0  0  0  0  0  0
   -3.0000    0.0000    0.0000 C   0  0  0  0  0  0  0  0  0  0  0  0
   -4.2990   -0.7500    0.0000 C   0  0  0  0  0  0  0  0  0  0  0  0
   -4.2990    0.7500    0.0000 C   0  0  0  0  0  0  0  0  0  0  0  0
   -0.7500    1.2990    0.0000 C   0  0  0  0  0  0  0  0  0  0  0  0
    0.7500    1.2990    0.0000 C   0  0  0  0  0  0  0  0  0  0  0  0
  1  2  1  0
  2  3  1  0
  3  4  2  0
  4  5  1  0
  5  6  1  0
  6  7  1  0
  7  8  1  0
  5  9  2  0
  9 10  1  0
 10  2  2  0
  8  6  1  0
M  END
>  <compound_id>  (60) 
DPC0060

>  <smiles>  (60) 
Brc1ccc(C2CC2)cc1

>  <patent_id>  (60) 
DEMO-102-A1

>  <assignee>  (60) 
Helixbridge Pharma

>  <publication_date>  (60) 
2022-10-06

>  <year>  (60) 
2022

>  <series>  (60) 
phenyl

>  <assay_id>  (60) 
ASSAY-02-01

>  <standard_relation>  (60) 
=

>  <pIC50>  (60) 
5.78

>  <project_note>  (60) 
primary measurement

>  <source_row>  (60) 
60

>  <status>  (60) 
accepted

>  <duplicate_group_size>  (60) 
2

>  <source_rows>  (60) 
60 | 222

>  <patent_ids>  (60) 
DEMO-101-A1 | DEMO-102-A1

>  <assignees>  (60) 
Helixbridge Pharma | Northstar Therapeutics

>  <molecular_weight>  (60) 
197.075

>  <clogp>  (60) 
3.327

>  <tpsa>  (60) 
0.0

>  <hbd>  (60) 
0

>  <hba>  (60) 
0

>  <rotatable_bonds>  (60) 
1

>  <heavy_atoms>  (60) 
10

>  <rings>  (60) 
2

>  <pIC50_median>  (60) 
5.78

>  <n_measurements>  (60) 
1.0

>  <murcko_scaffold>  (60) 
c1ccc(C2CC2)cc1

>  <scaffold_id>  (60) 
S003

>  <cluster_id>  (60) 
C034

$$$$
DPC0061
     RDKit          2D

 13 14  0  0  0  0  0  0  0  0999 V2000
    3.0000    0.0000    0.0000 Br  0  0  0  0  0  0  0  0  0  0  0  0
    1.5000    0.0000    0.0000 C   0  0  0  0  0  0  0  0  0  0  0  0
    0.7500   -1.2990    0.0000 C   0  0  0  0  0  0  0  0  0  0  0  0
   -0.7500   -1.2990    0.0000 C   0  0  0  0  0  0  0  0  0  0  0  0
   -1.5000    0.0000    0.0000 C   0  0  0  0  0  0  0  0  0  0  0  0
   -3.0000    0.0000    0.0000 C   0  0  0  0  0  0  0  0  0  0  0  0
   -3.7500    1.2990    0.0000 C   0  0  0  0  0  0  0  0  0  0  0  0
   -5.2500    1.2990    0.0000 C   0  0  0  0  0  0  0  0  0  0  0  0
   -6.0000    0.0000    0.0000 C   0  0  0  0  0  0  0  0  0  0  0  0
   -5.2500   -1.2990    0.0000 C   0  0  0  0  0  0  0  0  0  0  0  0
   -3.7500   -1.2990    0.0000 C   0  0  0  0  0  0  0  0  0  0  0  0
   -0.7500    1.2990    0.0000 C   0  0  0  0  0  0  0  0  0  0  0  0
    0.7500    1.2990    0.0000 C   0  0  0  0  0  0  0  0  0  0  0  0
  1  2  1  0
  2  3  1  0
  3  4  2  0
  4  5  1  0
  5  6  1  0
  6  7  1  0
  7  8  1  0
  8  9  1  0
  9 10  1  0
 10 11  1  0
  5 12  2  0
 12 13  1  0
 13  2  2  0
 11  6  1  0
M  END
>  <compound_id>  (61) 
DPC0061

>  <smiles>  (61) 
Brc1ccc(C2CCCCC2)cc1

>  <patent_id>  (61) 
DEMO-102-A1

>  <assignee>  (61) 
Helixbridge Pharma

>  <publication_date>  (61) 
2022-10-06

>  <year>  (61) 
2022

>  <series>  (61) 
phenyl

>  <assay_id>  (61) 
ASSAY-02-02

>  <standard_relation>  (61) 
=

>  <pIC50>  (61) 
6.04

>  <project_note>  (61) 
primary measurement

>  <source_row>  (61) 
61

>  <status>  (61) 
accepted

>  <duplicate_group_size>  (61) 
1

>  <source_rows>  (61) 
61

>  <patent_ids>  (61) 
DEMO-102-A1

>  <assignees>  (61) 
Helixbridge Pharma

>  <molecular_weight>  (61) 
239.156

>  <clogp>  (61) 
4.497

>  <tpsa>  (61) 
0.0

>  <hbd>  (61) 
0

>  <hba>  (61) 
0

>  <rotatable_bonds>  (61) 
1

>  <heavy_atoms>  (61) 
13

>  <rings>  (61) 
2

>  <pIC50_median>  (61) 
6.04

>  <n_measurements>  (61) 
1.0

>  <murcko_scaffold>  (61) 
c1ccc(C2CCCCC2)cc1

>  <scaffold_id>  (61) 
S004

>  <cluster_id>  (61) 
C012

$$$$
DPC0062
     RDKit          2D

  8  8  0  0  0  0  0  0  0  0999 V2000
    3.0000    0.0000    0.0000 O   0  0  0  0  0  0  0  0  0  0  0  0
    1.5000    0.0000    0.0000 C   0  0  0  0  0  0  0  0  0  0  0  0
    0.7500   -1.2990    0.0000 C   0  0  0  0  0  0  0  0  0  0  0  0
   -0.7500   -1.2990    0.0000 C   0  0  0  0  0  0  0  0  0  0  0  0
   -1.5000    0.0000    0.0000 C   0  0  0  0  0  0  0  0  0  0  0  0
   -3.0000    0.0000    0.0000 Br  0  0  0  0  0  0  0  0  0  0  0  0
   -0.7500    1.2990    0.0000 C   0  0  0  0  0  0  0  0  0  0  0  0
    0.7500    1.2990    0.0000 C   0  0  0  0  0  0  0  0  0  0  0  0
  1  2  1  0
  2  3  1  0
  3  4  2  0
  4  5  1  0
  5  6  1  0
  5  7  2  0
  7  8  1  0
  8  2  2  0
M  END
>  <compound_id>  (62) 
DPC0062

>  <smiles>  (62) 
Oc1ccc(Br)cc1

>  <patent_id>  (62) 
DEMO-102-A1

>  <assignee>  (62) 
Helixbridge Pharma

>  <publication_date>  (62) 
2022-10-06

>  <year>  (62) 
2022

>  <series>  (62) 
phenyl

>  <assay_id>  (62) 
ASSAY-02-03

>  <standard_relation>  (62) 
=

>  <pIC50>  (62) 
5.93

>  <project_note>  (62) 
primary measurement

>  <source_row>  (62) 
62

>  <status>  (62) 
accepted

>  <duplicate_group_size>  (62) 
1

>  <source_rows>  (62) 
62

>  <patent_ids>  (62) 
DEMO-102-A1

>  <assignees>  (62) 
Helixbridge Pharma

>  <molecular_weight>  (62) 
173.009

>  <clogp>  (62) 
2.155

>  <tpsa>  (62) 
20.23

>  <hbd>  (62) 
1

>  <hba>  (62) 
1

>  <rotatable_bonds>  (62) 
0

>  <heavy_atoms>  (62) 
8

>  <rings>  (62) 
1

>  <pIC50_median>  (62) 
5.93

>  <n_measurements>  (62) 
1.0

>  <murcko_scaffold>  (62) 
c1ccccc1

>  <scaffold_id>  (62) 
S001

>  <cluster_id>  (62) 
C018

$$$$
DPC0063
     RDKit          2D

 10 10  0  0  0  0  0  0  0  0999 V2000
    3.7500    1.2990    0.0000 O   0  0  0  0  0  0  0  0  0  0  0  0
    3.0000    0.0000    0.0000 C   0  0  0  0  0  0  0  0  0  0  0  0
    3.7500   -1.2990    0.0000 O   0  0  0  0  0  0  0  0  0  0  0  0
    1.5000    0.0000    0.0000 C   0  0  0  0  0  0  0  0  0  0  0  0
    0.7500   -1.2990    0.0000 C   0  0  0  0  0  0  0  0  0  0  0  0
   -0.7500   -1.2990    0.0000 C   0  0  0  0  0  0  0  0  0  0  0  0
   -1.5000    0.0000    0.0000 C   0  0  0  0  0  0  0  0  0  0  0  0
   -3.0000    0.0000    0.0000 Br  0  0  0  0  0  0  0  0  0  0  0  0
   -0.7500    1.2990    0.0000 C   0  0  0  0  0  0  0  0  0  0  0  0
    0.7500    1.2990    0.0000 C   0  0  0  0  0  0  0  0  0  0  0  0
  1  2  2  0
  2  3  1  0
  2  4  1  0
  4  5  1  0
  5  6  2  0
  6  7  1  0
  7  8  1  0
  7  9  2  0
  9 10  1  0
 10  4  2  0
M  END
>  <compound_id>  (63) 
DPC0063

>  <smiles>  (63) 
O=C(O)c1ccc(Br)cc1

>  <patent_id>  (63) 
DEMO-102-A1

>  <assignee>  (63) 
Helixbridge Pharma

>  <publication_date>  (63) 
2022-10-06

>  <year>  (63) 
2022

>  <series>  (63) 
phenyl

>  <assay_id>  (63) 
ASSAY-02-04

>  <standard_relation>  (63) 
=

>  <pIC50>  (63) 
5.99

>  <project_note>  (63) 
primary measurement

>  <source_row>  (63) 
63

>  <status>  (63) 
accepted

>  <duplicate_group_size>  (63) 
1

>  <source_rows>  (63) 
63

>  <patent_ids>  (63) 
DEMO-102-A1

>  <assignees>  (63) 
Helixbridge Pharma

>  <molecular_weight>  (63) 
201.019

>  <clogp>  (63) 
2.147

>  <tpsa>  (63) 
37.3

>  <hbd>  (63) 
1

>  <hba>  (63) 
1

>  <rotatable_bonds>  (63) 
1

>  <heavy_atoms>  (63) 
10

>  <rings>  (63) 
1

>  <pIC50_median>  (63) 
5.99

>  <n_measurements>  (63) 
1.0

>  <murcko_scaffold>  (63) 
c1ccccc1

>  <scaffold_id>  (63) 
S001

>  <cluster_id>  (63) 
C033

$$$$
DPC0064
     RDKit          2D

  8  8  0  0  0  0  0  0  0  0999 V2000
    3.0000    0.0000    0.0000 C   0  0  0  0  0  0  0  0  0  0  0  0
    1.5000    0.0000    0.0000 C   0  0  0  0  0  0  0  0  0  0  0  0
    0.7500   -1.2990    0.0000 C   0  0  0  0  0  0  0  0  0  0  0  0
   -0.7500   -1.2990    0.0000 C   0  0  0  0  0  0  0  0  0  0  0  0
   -1.5000    0.0000    0.0000 C   0  0  0  0  0  0  0  0  0  0  0  0
   -3.0000    0.0000    0.0000 C   0  0  0  0  0  0  0  0  0  0  0  0
   -0.7500    1.2990    0.0000 C   0  0  0  0  0  0  0  0  0  0  0  0
    0.7500    1.2990    0.0000 C   0  0  0  0  0  0  0  0  0  0  0  0
  1  2  1  0
  2  3  1  0
  3  4  2  0
  4  5  1  0
  5  6  1  0
  5  7  2  0
  7  8  1  0
  8  2  2  0
M  END
>  <compound_id>  (64) 
DPC0064

>  <smiles>  (64) 
Cc1ccc(C)cc1

>  <patent_id>  (64) 
DEMO-102-A1

>  <assignee>  (64) 
Helixbridge Pharma

>  <publication_date>  (64) 
2022-10-06

>  <year>  (64) 
2022

>  <series>  (64) 
phenyl

>  <assay_id>  (64) 
ASSAY-02-05

>  <standard_relation>  (64) 
=

>  <pIC50>  (64) 
5.73

>  <project_note>  (64) 
primary measurement

>  <source_row>  (64) 
64

>  <status>  (64) 
accepted

>  <duplicate_group_size>  (64) 
1

>  <source_rows>  (64) 
64

>  <patent_ids>  (64) 
DEMO-102-A1

>  <assignees>  (64) 
Helixbridge Pharma

>  <molecular_weight>  (64) 
106.168

>  <clogp>  (64) 
2.303

>  <tpsa>  (64) 
0.0

>  <hbd>  (64) 
0

>  <hba>  (64) 
0

>  <rotatable_bonds>  (64) 
0

>  <heavy_atoms>  (64) 
8

>  <rings>  (64) 
1

>  <pIC50_median>  (64) 
5.73

>  <n_measurements>  (64) 
1.0

>  <murcko_scaffold>  (64) 
c1ccccc1

>  <scaffold_id>  (64) 
S001

>  <cluster_id>  (64) 
C017

$$$$
DPC0065
     RDKit          2D

  9  9  0  0  0  0  0  0  0  0999 V2000
    3.7500   -1.2990    0.0000 C   0  0  0  0  0  0  0  0  0  0  0  0
    3.0000    0.0000    0.0000 C   0  0  0  0  0  0  0  0  0  0  0  0
    1.5000    0.0000    0.0000 C   0  0  0  0  0  0  0  0  0  0  0  0
    0.7500   -1.2990    0.0000 C   0  0  0  0  0  0  0  0  0  0  0  0
   -0.7500   -1.2990    0.0000 C   0  0  0  0  0  0  0  0  0  0  0  0
   -1.5000    0.0000    0.0000 C   0  0  0  0  0  0  0  0  0  0  0  0
   -3.0000    0.0000    0.0000 C   0  0  0  0  0  0  0  0  0  0  0  0
   -0.7500    1.2990    0.0000 C   0  0  0  0  0  0  0  0  0  0  0  0
    0.7500    1.2990    0.0000 C   0  0  0  0  0  0  0  0  0  0  0  0
  1  2  1  0
  2  3  1  0
  3  4  1  0
  4  5  2  0
  5  6  1  0
  6  7  1  0
  6  8  2  0
  8  9  1  0
  9  3  2  0
M  END
>  <compound_id>  (65) 
DPC0065

>  <smiles>  (65) 
CCc1ccc(C)cc1

>  <patent_id>  (65) 
DEMO-102-A1

>  <assignee>  (65) 
Helixbridge Pharma

>  <publication_date>  (65) 
2022-10-06

>  <year>  (65) 
2022

>  <series>  (65) 
phenyl

>  <assay_id>  (65) 
ASSAY-02-06

>  <standard_relation>  (65) 
=

>  <pIC50>  (65) 
5.7

>  <project_note>  (65) 
primary measurement

>  <source_row>  (65) 
65

>  <status>  (65) 
accepted

>  <duplicate_group_size>  (65) 
1

>  <source_rows>  (65) 
65

>  <patent_ids>  (65) 
DEMO-102-A1

>  <assignees>  (65) 
Helixbridge Pharma

>  <molecular_weight>  (65) 
120.195

>  <clogp>  (65) 
2.557

>  <tpsa>  (65) 
0.0

>  <hbd>  (65) 
0

>  <hba>  (65) 
0

>  <rotatable_bonds>  (65) 
1

>  <heavy_atoms>  (65) 
9

>  <rings>  (65) 
1

>  <pIC50_median>  (65) 
5.7

>  <n_measurements>  (65) 
1.0

>  <murcko_scaffold>  (65) 
c1ccccc1

>  <scaffold_id>  (65) 
S001

>  <cluster_id>  (65) 
C005

$$$$
DPC0066
     RDKit          2D

 10 10  0  0  0  0  0  0  0  0999 V2000
    5.2500   -1.2990    0.0000 C   0  0  0  0  0  0  0  0  0  0  0  0
    3.7500   -1.2990    0.0000 C   0  0  0  0  0  0  0  0  0  0  0  0
    3.0000    0.0000    0.0000 C   0  0  0  0  0  0  0  0  0  0  0  0
    1.5000    0.0000    0.0000 C   0  0  0  0  0  0  0  0  0  0  0  0
    0.7500   -1.2990    0.0000 C   0  0  0  0  0  0  0  0  0  0  0  0
   -0.7500   -1.2990    0.0000 C   0  0  0  0  0  0  0  0  0  0  0  0
   -1.5000    0.0000    0.0000 C   0  0  0  0  0  0  0  0  0  0  0  0
   -3.0000    0.0000    0.0000 C   0  0  0  0  0  0  0  0  0  0  0  0
   -0.7500    1.2990    0.0000 C   0  0  0  0  0  0  0  0  0  0  0  0
    0.7500    1.2990    0.0000 C   0  0  0  0  0  0  0  0  0  0  0  0
  1  2  1  0
  2  3  1  0
  3  4  1  0
  4  5  1  0
  5  6  2  0
  6  7  1  0
  7  8  1  0
  7  9  2  0
  9 10  1  0
 10  4  2  0
M  END
>  <compound_id>  (66) 
DPC0066

>  <smiles>  (66) 
CCCc1ccc(C)cc1

>  <patent_id>  (66) 
DEMO-102-A1

>  <assignee>  (66) 
Helixbridge Pharma

>  <publication_date>  (66) 
2022-10-06

>  <year>  (66) 
2022

>  <series>  (66) 
phenyl

>  <assay_id>  (66) 
ASSAY-02-07

>  <standard_relation>  (66) 
=

>  <pIC50>  (66) 
5.55

>  <project_note>  (66) 
primary measurement

>  <source_row>  (66) 
66

>  <status>  (66) 
accepted

>  <duplicate_group_size>  (66) 
1

>  <source_rows>  (66) 
66

>  <patent_ids>  (66) 
DEMO-102-A1

>  <assignees>  (66) 
Helixbridge Pharma

>  <molecular_weight>  (66) 
134.222

>  <clogp>  (66) 
2.948

>  <tpsa>  (66) 
0.0

>  <hbd>  (66) 
0

>  <hba>  (66) 
0

>  <rotatable_bonds>  (66) 
2

>  <heavy_atoms>  (66) 
10

>  <rings>  (66) 
1

>  <pIC50_median>  (66) 
5.55

>  <n_measurements>  (66) 
1.0

>  <murcko_scaffold>  (66) 
c1ccccc1

>  <scaffold_id>  (66) 
S001

>  <cluster_id>  (66) 
C002

$$$$
DPC0067
     RDKit          2D

  9  9  0  0  0  0  0  0  0  0999 V2000
    3.7500   -1.2990    0.0000 C   0  0  0  0  0  0  0  0  0  0  0  0
    3.0000    0.0000    0.0000 O   0  0  0  0  0  0  0  0  0  0  0  0
    1.5000    0.0000    0.0000 C   0  0  0  0  0  0  0  0  0  0  0  0
    0.7500   -1.2990    0.0000 C   0  0  0  0  0  0  0  0  0  0  0  0
   -0.7500   -1.2990    0.0000 C   0  0  0  0  0  0  0  0  0  0  0  0
   -1.5000    0.0000    0.0000 C   0  0  0  0  0  0  0  0  0  0  0  0
   -3.0000    0.0000    0.0000 C   0  0  0  0  0  0  0  0  0  0  0  0
   -0.7500    1.2990    0.0000 C   0  0  0  0  0  0  0  0  0  0  0  0
    0.7500    1.2990    0.0000 C   0  0  0  0  0  0  0  0  0  0  0  0
  1  2  1  0
  2  3  1  0
  3  4  1  0
  4  5  2  0
  5  6  1  0
  6  7  1  0
  6  8  2  0
  8  9  1  0
  9  3  2  0
M  END
>  <compound_id>  (67) 
DPC0067

>  <smiles>  (67) 
COc1ccc(C)cc1

>  <patent_id>  (67) 
DEMO-102-A1

>  <assignee>  (67) 
Helixbridge Pharma

>  <publication_date>  (67) 
2022-10-06

>  <year>  (67) 
2022

>  <series>  (67) 
phenyl

>  <assay_id>  (67) 
ASSAY-02-08

>  <standard_relation>  (67) 
=

>  <pIC50>  (67) 
5.65

>  <project_note>  (67) 
primary measurement

>  <source_row>  (67) 
67

>  <status>  (67) 
accepted

>  <duplicate_group_size>  (67) 
1

>  <source_rows>  (67) 
67

>  <patent_ids>  (67) 
DEMO-102-A1

>  <assignees>  (67) 
Helixbridge Pharma

>  <molecular_weight>  (67) 
122.167

>  <clogp>  (67) 
2.004

>  <tpsa>  (67) 
9.23

>  <hbd>  (67) 
0

>  <hba>  (67) 
1

>  <rotatable_bonds>  (67) 
1

>  <heavy_atoms>  (67) 
9

>  <rings>  (67) 
1

>  <pIC50_median>  (67) 
5.65

>  <n_measurements>  (67) 
1.0

>  <murcko_scaffold>  (67) 
c1ccccc1

>  <scaffold_id>  (67) 
S001

>  <cluster_id>  (67) 
C004

$$$$
DPC0068
     RDKit          2D

 10 10  0  0  0  0  0  0  0  0999 V2000
    5.2500   -1.2990    0.0000 C   0  0  0  0  0  0  0  0  0  0  0  0
    3.7500   -1.2990    0.0000 C   0  0  0  0  0  0  0  0  0  0  0  0
    3.0000    0.0000    0.0000 O   0  0  0  0  0  0  0  0  0  0  0  0
    1.5000    0.0000    0.0000 C   0  0  0  0  0  0  0  0  0  0  0  0
    0.7500   -1.2990    0.0000 C   0  0  0  0  0  0  0  0  0  0  0  0
   -0.7500   -1.2990    0.0000 C   0  0  0  0  0  0  0  0  0  0  0  0
   -1.5000    0.0000    0.0000 C   0  0  0  0  0  0  0  0  0  0  0  0
   -3.0000    0.0000    0.0000 C   0  0  0  0  0  0  0  0  0  0  0  0
   -0.7500    1.2990    0.0000 C   0  0  0  0  0  0  0  0  0  0  0  0
    0.7500    1.2990    0.0000 C   0  0  0  0  0  0  0  0  0  0  0  0
  1  2  1  0
  2  3  1  0
  3  4  1  0
  4  5  1  0
  5  6  2  0
  6  7  1  0
  7  8  1  0
  7  9  2  0
  9 10  1  0
 10  4  2  0
M  END
>  <compound_id>  (68) 
DPC0068

>  <smiles>  (68) 
CCOc1ccc(C)cc1

>  <patent_id>  (68) 
DEMO-102-A1

>  <assignee>  (68) 
Helixbridge Pharma

>  <publication_date>  (68) 
2022-10-06

>  <year>  (68) 
2022

>  <series>  (68) 
phenyl

>  <assay_id>  (68) 
ASSAY-02-09

>  <standard_relation>  (68) 
=

>  <pIC50>  (68) 
5.76

>  <project_note>  (68) 
primary measurement

>  <source_row>  (68) 
68

>  <status>  (68) 
accepted

>  <duplicate_group_size>  (68) 
1

>  <source_rows>  (68) 
68

>  <patent_ids>  (68) 
DEMO-102-A1

>  <assignees>  (68) 
Helixbridge Pharma

>  <molecular_weight>  (68) 
136.194

>  <clogp>  (68) 
2.394

>  <tpsa>  (68) 
9.23

>  <hbd>  (68) 
0

>  <hba>  (68) 
1

>  <rotatable_bonds>  (68) 
2

>  <heavy_atoms>  (68) 
10

>  <rings>  (68) 
1

>  <pIC50_median>  (68) 
5.76

>  <n_measurements>  (68) 
1.0

>  <murcko_scaffold>  (68) 
c1ccccc1

>  <scaffold_id>  (68) 
S001

>  <cluster_id>  (68) 
C001

$$$$
DPC0069
     RDKit          2D

  8  8  0  0  0  0  0  0  0  0999 V2000
    3.0000    0.0000    0.0000 C   0  0  0  0  0  0  0  0  0  0  0  0
    1.5000    0.0000    0.0000 C   0  0  0  0  0  0  0  0  0  0  0  0
    0.7500   -1.2990    0.0000 C   0  0  0  0  0  0  0  0  0  0  0  0
   -0.7500   -1.2990    0.0000 C   0  0  0  0  0  0  0  0  0  0  0  0
   -1.5000    0.0000    0.0000 C   0  0  0  0  0  0  0  0  0  0  0  0
   -3.0000    0.0000    0.0000 N   0  0  0  0  0  0  0  0  0  0  0  0
   -0.7500    1.2990    0.0000 C   0  0  0  0  0  0  0  0  0  0  0  0
    0.7500    1.2990    0.0000 C   0  0  0  0  0  0  0  0  0  0  0  0
  1  2  1  0
  2  3  1  0
  3  4  2  0
  4  5  1  0
  5  6  1  0
  5  7  2  0
  7  8  1  0
  8  2  2  0
M  END
>  <compound_id>  (69) 
DPC0069

>  <smiles>  (69) 
Cc1ccc(N)cc1

>  <patent_id>  (69) 
DEMO-102-A1

>  <assignee>  (69) 
Helixbridge Pharma

>  <publication_date>  (69) 
2022-10-06

>  <year>  (69) 
2022

>  <series>  (69) 
phenyl

>  <assay_id>  (69) 
ASSAY-02-10

>  <standard_relation>  (69) 
<

>  <pIC50>  (69) 
5.76

>  <project_note>  (69) 
primary measurement

>  <source_row>  (69) 
69

>  <status>  (69) 
accepted

>  <duplicate_group_size>  (69) 
1

>  <source_rows>  (69) 
69

>  <patent_ids>  (69) 
DEMO-102-A1

>  <assignees>  (69) 
Helixbridge Pharma

>  <molecular_weight>  (69) 
107.156

>  <clogp>  (69) 
1.577

>  <tpsa>  (69) 
26.02

>  <hbd>  (69) 
1

>  <hba>  (69) 
1

>  <rotatable_bonds>  (69) 
0

>  <heavy_atoms>  (69) 
8

>  <rings>  (69) 
1

>  <murcko_scaffold>  (69) 
c1ccccc1

>  <scaffold_id>  (69) 
S001

>  <cluster_id>  (69) 
C015

$$$$
DPC0070
     RDKit          2D

  9  9  0  0  0  0  0  0  0  0999 V2000
    3.7500   -1.2990    0.0000 C   0  0  0  0  0  0  0  0  0  0  0  0
    3.0000    0.0000    0.0000 N   0  0  0  0  0  0  0  0  0  0  0  0
    1.5000    0.0000    0.0000 C   0  0  0  0  0  0  0  0  0  0  0  0
    0.7500   -1.2990    0.0000 C   0  0  0  0  0  0  0  0  0  0  0  0
   -0.7500   -1.2990    0.0000 C   0  0  0  0  0  0  0  0  0  0  0  0
   -1.5000    0.0000    0.0000 C   0  0  0  0  0  0  0  0  0  0  0  0
   -3.0000    0.0000    0.0000 C   0  0  0  0  0  0  0  0  0  0  0  0
   -0.7500    1.2990    0.0000 C   0  0  0  0  0  0  0  0  0  0  0  0
    0.7500    1.2990    0.0000 C   0  0  0  0  0  0  0  0  0  0  0  0
  1  2  1  0
  2  3  1  0
  3  4  1  0
  4  5  2  0
  5  6  1  0
  6  7  1  0
  6  8  2  0
  8  9  1  0
  9  3  2  0
M  END
>  <compound_id>  (70) 
DPC0070

>  <smiles>  (70) 
CNc1ccc(C)cc1

>  <patent_id>  (70) 
DEMO-102-A1

>  <assignee>  (70) 
Helixbridge Pharma

>  <publication_date>  (70) 
2022-10-06

>  <year>  (70) 
2022

>  <series>  (70) 
phenyl

>  <assay_id>  (70) 
ASSAY-02-11

>  <standard_relation>  (70) 
=

>  <pIC50>  (70) 
5.93

>  <project_note>  (70) 
primary measurement

>  <source_row>  (70) 
70

>  <status>  (70) 
accepted

>  <duplicate_group_size>  (70) 
1

>  <source_rows>  (70) 
70

>  <patent_ids>  (70) 
DEMO-102-A1

>  <assignees>  (70) 
Helixbridge Pharma

>  <molecular_weight>  (70) 
121.183

>  <clogp>  (70) 
2.037

>  <tpsa>  (70) 
12.03

>  <hbd>  (70) 
1

>  <hba>  (70) 
1

>  <rotatable_bonds>  (70) 
1

>  <heavy_atoms>  (70) 
9

>  <rings>  (70) 
1

>  <pIC50_median>  (70) 
5.93

>  <n_measurements>  (70) 
1.0

>  <murcko_scaffold>  (70) 
c1ccccc1

>  <scaffold_id>  (70) 
S001

>  <cluster_id>  (70) 
C008

$$$$
DPC0071
     RDKit          2D

 10 10  0  0  0  0  0  0  0  0999 V2000
    3.0000    0.0000    0.0000 C   0  0  0  0  0  0  0  0  0  0  0  0
    1.5000    0.0000    0.0000 C   0  0  0  0  0  0  0  0  0  0  0  0
    0.7500   -1.2990    0.0000 C   0  0  0  0  0  0  0  0  0  0  0  0
   -0.7500   -1.2990    0.0000 C   0  0  0  0  0  0  0  0  0  0  0  0
   -1.5000    0.0000    0.0000 C   0  0  0  0  0  0  0  0  0  0  0  0
   -3.0000    0.0000    0.0000 N   0  0  0  0  0  0  0  0  0  0  0  0
   -3.7500    1.2990    0.0000 C   0  0  0  0  0  0  0  0  0  0  0  0
   -3.7500   -1.2990    0.0000 C   0  0  0  0  0  0  0  0  0  0  0  0
   -0.7500    1.2990    0.0000 C   0  0  0  0  0  0  0  0  0  0  0  0
    0.7500    1.2990    0.0000 C   0  0  0  0  0  0  0  0  0  0  0  0
  1  2  1  0
  2  3  1  0
  3  4  2  0
  4  5  1  0
  5  6  1  0
  6  7  1  0
  6  8  1  0
  5  9  2  0
  9 10  1  0
 10  2  2  0
M  END
>  <compound_id>  (71) 
DPC0071

>  <smiles>  (71) 
Cc1ccc(N(C)C)cc1

>  <patent_id>  (71) 
DEMO-102-A1

>  <assignee>  (71) 
Helixbridge Pharma

>  <publication_date>  (71) 
2022-10-06

>  <year>  (71) 
2022

>  <series>  (71) 
phenyl

>  <assay_id>  (71) 
ASSAY-02-12

>  <standard_relation>  (71) 
=

>  <pIC50>  (71) 
6.03

>  <project_note>  (71) 
primary measurement

>  <source_row>  (71) 
71

>  <status>  (71) 
accepted

>  <duplicate_group_size>  (71) 
1

>  <source_rows>  (71) 
71

>  <patent_ids>  (71) 
DEMO-102-A1

>  <assignees>  (71) 
Helixbridge Pharma

>  <molecular_weight>  (71) 
135.21

>  <clogp>  (71) 
2.061

>  <tpsa>  (71) 
3.24

>  <hbd>  (71) 
0

>  <hba>  (71) 
1

>  <rotatable_bonds>  (71) 
1

>  <heavy_atoms>  (71) 
10

>  <rings>  (71) 
1

>  <pIC50_median>  (71) 
6.03

>  <n_measurements>  (71) 
1.0

>  <murcko_scaffold>  (71) 
c1ccccc1

>  <scaffold_id>  (71) 
S001

>  <cluster_id>  (71) 
C007

$$$$
DPC0072
     RDKit          2D

  9  9  0  0  0  0  0  0  0  0999 V2000
    3.0000    0.0000    0.0000 C   0  0  0  0  0  0  0  0  0  0  0  0
    1.5000    0.0000    0.0000 C   0  0  0  0  0  0  0  0  0  0  0  0
    0.7500   -1.2990    0.0000 C   0  0  0  0  0  0  0  0  0  0  0  0
   -0.7500   -1.2990    0.0000 C   0  0  0  0  0  0  0  0  0  0  0  0
   -1.5000    0.0000    0.0000 C   0  0  0  0  0  0  0  0  0  0  0  0
   -3.0000    0.0000    0.0000 C   0  0  0  0  0  0  0  0  0  0  0  0
   -4.5000    0.0000    0.0000 N   0  0  0  0  0  0  0  0  0  0  0  0
   -0.7500    1.2990    0.0000 C   0  0  0  0  0  0  0  0  0  0  0  0
    0.7500    1.2990    0.0000 C   0  0  0  0  0  0  0  0  0  0  0  0
  1  2  1  0
  2  3  1  0
  3  4  2  0
  4  5  1  0
  5  6  1  0
  6  7  3  0
  5  8  2  0
  8  9  1  0
  9  2  2  0
M  END
>  <compound_id>  (72) 
DPC0072

>  <smiles>  (72) 
Cc1ccc(C#N)cc1

>  <patent_id>  (72) 
DEMO-102-A1

>  <assignee>  (72) 
Helixbridge Pharma

>  <publication_date>  (72) 
2022-10-06

>  <year>  (72) 
2022

>  <series>  (72) 
phenyl

>  <assay_id>  (72) 
ASSAY-02-01

>  <standard_relation>  (72) 
=

>  <pIC50>  (72) 
6.04

>  <project_note>  (72) 
primary measurement

>  <source_row>  (72) 
72

>  <status>  (72) 
accepted

>  <duplicate_group_size>  (72) 
1

>  <source_rows>  (72) 
72

>  <patent_ids>  (72) 
DEMO-102-A1

>  <assignees>  (72) 
Helixbridge Pharma

>  <molecular_weight>  (72) 
117.151

>  <clogp>  (72) 
1.867

>  <tpsa>  (72) 
23.79

>  <hbd>  (72) 
0

>  <hba>  (72) 
1

>  <rotatable_bonds>  (72) 
0

>  <heavy_atoms>  (72) 
9

>  <rings>  (72) 
1

>  <pIC50_median>  (72) 
6.04

>  <n_measurements>  (72) 
1.0

>  <murcko_scaffold>  (72) 
c1ccccc1

>  <scaffold_id>  (72) 
S001

>  <cluster_id>  (72) 
C009

$$$$
DPC0073
     RDKit          2D

 11 11  0  0  0  0  0  0  0  0999 V2000
    3.0000    0.0000    0.0000 C   0  0  0  0  0  0  0  0  0  0  0  0
    1.5000    0.0000    0.0000 C   0  0  0  0  0  0  0  0  0  0  0  0
    0.7500   -1.2990    0.0000 C   0  0  0  0  0  0  0  0  0  0  0  0
   -0.7500   -1.2990    0.0000 C   0  0  0  0  0  0  0  0  0  0  0  0
   -1.5000    0.0000    0.0000 C   0  0  0  0  0  0  0  0  0  0  0  0
   -3.0000    0.0000    0.0000 C   0  0  0  0  0  0  0  0  0  0  0  0
   -4.5000    0.0000    0.0000 F   0  0  0  0  0  0  0  0  0  0  0  0
   -3.0000    1.5000    0.0000 F   0  0  0  0  0  0  0  0  0  0  0  0
   -3.0000   -1.5000    0.0000 F   0  0  0  0  0  0  0  0  0  0  0  0
   -0.7500    1.2990    0.0000 C   0  0  0  0  0  0  0  0  0  0  0  0
    0.7500    1.2990    0.0000 C   0  0  0  0  0  0  0  0  0  0  0  0
  1  2  1  0
  2  3  1  0
  3  4  2  0
  4  5  1  0
  5  6  1  0
  6  7  1  0
  6  8  1  0
  6  9  1  0
  5 10  2  0
 10 11  1  0
 11  2  2  0
M  END
>  <compound_id>  (73) 
DPC0073

>  <smiles>  (73) 
Cc1ccc(C(F)(F)F)cc1

>  <patent_id>  (73) 
DEMO-102-A1

>  <assignee>  (73) 
Helixbridge Pharma

>  <publication_date>  (73) 
2022-10-06

>  <year>  (73) 
2022

>  <series>  (73) 
phenyl

>  <assay_id>  (73) 
ASSAY-02-02

>  <standard_relation>  (73) 
=

>  <pIC50>  (73) 
5.86

>  <project_note>  (73) 
primary measurement

>  <source_row>  (73) 
73

>  <status>  (73) 
accepted

>  <duplicate_group_size>  (73) 
1

>  <source_rows>  (73) 
73

>  <patent_ids>  (73) 
DEMO-102-A1

>  <assignees>  (73) 
Helixbridge Pharma

>  <molecular_weight>  (73) 
160.138

>  <clogp>  (73) 
3.014

>  <tpsa>  (73) 
0.0

>  <hbd>  (73) 
0

>  <hba>  (73) 
0

>  <rotatable_bonds>  (73) 
0

>  <heavy_atoms>  (73) 
11

>  <rings>  (73) 
1

>  <pIC50_median>  (73) 
5.86

>  <n_measurements>  (73) 
1.0

>  <murcko_scaffold>  (73) 
c1ccccc1

>  <scaffold_id>  (73) 
S001

>  <cluster_id>  (73) 
C006

$$$$
DPC0074
     RDKit          2D

 10 10  0  0  0  0  0  0  0  0999 V2000
    3.0000    0.0000    0.0000 C   0  0  0  0  0  0  0  0  0  0  0  0
    1.5000    0.0000    0.0000 C   0  0  0  0  0  0  0  0  0  0  0  0
    0.7500   -1.2990    0.0000 C   0  0  0  0  0  0  0  0  0  0  0  0
   -0.7500   -1.2990    0.0000 C   0  0  0  0  0  0  0  0  0  0  0  0
   -1.5000    0.0000    0.0000 C   0  0  0  0  0  0  0  0  0  0  0  0
   -3.0000    0.0000    0.0000 C   0  0  0  0  0  0  0  0  0  0  0  0
   -3.7500    1.2990    0.0000 N   0  0  0  0  0  0  0  0  0  0  0  0
   -3.7500   -1.2990    0.0000 O   0  0  0  0  0  0  0  0  0  0  0  0
   -0.7500    1.2990    0.0000 C   0  0  0  0  0  0  0  0  0  0  0  0
    0.7500    1.2990    0.0000 C   0  0  0  0  0  0  0  0  0  0  0  0
  1  2  1  0
  2  3  1  0
  3  4  2  0
  4  5  1  0
  5  6  1  0
  6  7  1  0
  6  8  2  0
  5  9  2  0
  9 10  1  0
 10  2  2  0
M  END
>  <compound_id>  (74) 
DPC0074

>  <smiles>  (74) 
Cc1ccc(C(N)=O)cc1

>  <patent_id>  (74) 
DEMO-102-A1

>  <assignee>  (74) 
Helixbridge Pharma

>  <publication_date>  (74) 
2022-10-06

>  <year>  (74) 
2022

>  <series>  (74) 
phenyl

>  <assay_id>  (74) 
ASSAY-02-03

>  <standard_relation>  (74) 
>

>  <pIC50>  (74) 
5.67

>  <project_note>  (74) 
primary measurement

>  <source_row>  (74) 
74

>  <status>  (74) 
accepted

>  <duplicate_group_size>  (74) 
1

>  <source_rows>  (74) 
74

>  <patent_ids>  (74) 
DEMO-102-A1

>  <assignees>  (74) 
Helixbridge Pharma

>  <molecular_weight>  (74) 
135.166

>  <clogp>  (74) 
1.094

>  <tpsa>  (74) 
43.09

>  <hbd>  (74) 
1

>  <hba>  (74) 
1

>  <rotatable_bonds>  (74) 
1

>  <heavy_atoms>  (74) 
10

>  <rings>  (74) 
1

>  <murcko_scaffold>  (74) 
c1ccccc1

>  <scaffold_id>  (74) 
S001

>  <cluster_id>  (74) 
C003

$$$$
DPC0075
     RDKit          2D

 11 11  0  0  0  0  0  0  0  0999 V2000
    5.2500   -1.2990    0.0000 C   0  0  0  0  0  0  0  0  0  0  0  0
    3.7500   -1.2990    0.0000 N   0  0  0  0  0  0  0  0  0  0  0  0
    3.0000    0.0000    0.0000 C   0  0  0  0  0  0  0  0  0  0  0  0
    3.7500    1.2990    0.0000 O   0  0  0  0  0  0  0  0  0  0  0  0
    1.5000    0.0000    0.0000 C   0  0  0  0  0  0  0  0  0  0  0  0
    0.7500   -1.2990    0.0000 C   0  0  0  0  0  0  0  0  0  0  0  0
   -0.7500   -1.2990    0.0000 C   0  0  0  0  0  0  0  0  0  0  0  0
   -1.5000    0.0000    0.0000 C   0  0  0  0  0  0  0  0  0  0  0  0
   -3.0000    0.0000    0.0000 C   0  0  0  0  0  0  0  0  0  0  0  0
   -0.7500    1.2990    0.0000 C   0  0  0  0  0  0  0  0  0  0  0  0
    0.7500    1.2990    0.0000 C   0  0  0  0  0  0  0  0  0  0  0  0
  1  2  1  0
  2  3  1  0
  3  4  2  0
  3  5  1  0
  5  6  1  0
  6  7  2  0
  7  8  1  0
  8  9  1  0
  8 10  2  0
 10 11  1  0
 11  5  2  0
M  END
>  <compound_id>  (75) 
DPC0075

>  <smiles>  (75) 
CNC(=O)c1ccc(C)cc1

>  <patent_id>  (75) 
DEMO-102-A1

>  <assignee>  (75) 
Helixbridge Pharma

>  <publication_date>  (75) 
2022-10-06

>  <year>  (75) 
2022

>  <series>  (75) 
phenyl

>  <assay_id>  (75) 
ASSAY-02-04

>  <standard_relation>  (75) 
=

>  <pIC50>  (75) 
5.67

>  <project_note>  (75) 
primary measurement

>  <source_row>  (75) 
75

>  <status>  (75) 
accepted

>  <duplicate_group_size>  (75) 
1

>  <source_rows>  (75) 
75

>  <patent_ids>  (75) 
DEMO-102-A1

>  <assignees>  (75) 
Helixbridge Pharma

>  <molecular_weight>  (75) 
149.193

>  <clogp>  (75) 
1.355

>  <tpsa>  (75) 
29.1

>  <hbd>  (75) 
1

>  <hba>  (75) 
1

>  <rotatable_bonds>  (75) 
1

>  <heavy_atoms>  (75) 
11

>  <rings>  (75) 
1

>  <pIC50_median>  (75) 
5.67

>  <n_measurements>  (75) 
1.0

>  <murcko_scaffold>  (75) 
c1ccccc1

>  <scaffold_id>  (75) 
S001

>  <cluster_id>  (75) 
C010

$$$$
DPC0076
     RDKit          2D

 11 11  0  0  0  0  0  0  0  0999 V2000
    3.0000    0.0000    0.0000 C   0  0  0  0  0  0  0  0  0  0  0  0
    1.5000    0.0000    0.0000 C   0  0  0  0  0  0  0  0  0  0  0  0
    0.7500   -1.2990    0.0000 C   0  0  0  0  0  0  0  0  0  0  0  0
   -0.7500   -1.2990    0.0000 C   0  0  0  0  0  0  0  0  0  0  0  0
   -1.5000    0.0000    0.0000 C   0  0  0  0  0  0  0  0  0  0  0  0
   -3.0000    0.0000    0.0000 S   0  0  0  0  0  0  0  0  0  0  0  0
   -4.5000    0.0000    0.0000 N   0  0  0  0  0  0  0  0  0  0  0  0
   -3.0000    1.5000    0.0000 O   0  0  0  0  0  0  0  0  0  0  0  0
   -3.0000   -1.5000    0.0000 O   0  0  0  0  0  0  0  0  0  0  0  0
   -0.7500    1.2990    0.0000 C   0  0  0  0  0  0  0  0  0  0  0  0
    0.7500    1.2990    0.0000 C   0  0  0  0  0  0  0  0  0  0  0  0
  1  2  1  0
  2  3  1  0
  3  4  2  0
  4  5  1  0
  5  6  1  0
  6  7  1  0
  6  8  2  0
  6  9  2  0
  5 10  2  0
 10 11  1  0
 11  2  2  0
M  END
>  <compound_id>  (76) 
DPC0076

>  <smiles>  (76) 
Cc1ccc(S(N)(=O)=O)cc1

>  <patent_id>  (76) 
DEMO-102-A1

>  <assignee>  (76) 
Helixbridge Pharma

>  <publication_date>  (76) 
2022-10-06

>  <year>  (76) 
2022

>  <series>  (76) 
phenyl

>  <assay_id>  (76) 
ASSAY-02-05

>  <standard_relation>  (76) 
=

>  <pIC50>  (76) 
5.57

>  <project_note>  (76) 
primary measurement

>  <source_row>  (76) 
76

>  <status>  (76) 
accepted

>  <duplicate_group_size>  (76) 
1

>  <source_rows>  (76) 
76

>  <patent_ids>  (76) 
DEMO-102-A1

>  <assignees>  (76) 
Helixbridge Pharma

>  <molecular_weight>  (76) 
171.221

>  <clogp>  (76) 
0.642

>  <tpsa>  (76) 
60.16

>  <hbd>  (76) 
1

>  <hba>  (76) 
2

>  <rotatable_bonds>  (76) 
1

>  <heavy_atoms>  (76) 
11

>  <rings>  (76) 
1

>  <pIC50_median>  (76) 
5.57

>  <n_measurements>  (76) 
1.0

>  <murcko_scaffold>  (76) 
c1ccccc1

>  <scaffold_id>  (76) 
S001

>  <cluster_id>  (76) 
C014

$$$$
DPC0077
     RDKit          2D

 12 12  0  0  0  0  0  0  0  0999 V2000
    3.0000    0.0000    0.0000 C   0  0  0  0  0  0  0  0  0  0  0  0
    1.5000    0.0000    0.0000 C   0  0  0  0  0  0  0  0  0  0  0  0
    0.7500   -1.2990    0.0000 C   0  0  0  0  0  0  0  0  0  0  0  0
   -0.7500   -1.2990    0.0000 C   0  0  0  0  0  0  0  0  0  0  0  0
   -1.5000    0.0000    0.0000 C   0  0  0  0  0  0  0  0  0  0  0  0
   -3.0000    0.0000    0.0000 O   0  0  0  0  0  0  0  0  0  0  0  0
   -3.7500    1.2990    0.0000 C   0  0  0  0  0  0  0  0  0  0  0  0
   -4.5000    2.5981    0.0000 F   0  0  0  0  0  0  0  0  0  0  0  0
   -5.0490    0.5490    0.0000 F   0  0  0  0  0  0  0  0  0  0  0  0
   -2.4510    2.0490    0.0000 F   0  0  0  0  0  0  0  0  0  0  0  0
   -0.7500    1.2990    0.0000 C   0  0  0  0  0  0  0  0  0  0  0  0
    0.7500    1.2990    0.0000 C   0  0  0  0  0  0  0  0  0  0  0  0
  1  2  1  0
  2  3  1  0
  3  4  2  0
  4  5  1  0
  5  6  1  0
  6  7  1  0
  7  8  1  0
  7  9  1  0
  7 10  1  0
  5 11  2  0
 11 12  1  0
 12  2  2  0
M  END
>  <compound_id>  (77) 
DPC0077

>  <smiles>  (77) 
Cc1ccc(OC(F)(F)F)cc1

>  <patent_id>  (77) 
DEMO-102-A1

>  <assignee>  (77) 
Helixbridge Pharma

>  <publication_date>  (77) 
2022-10-06

>  <year>  (77) 
2022

>  <series>  (77) 
phenyl

>  <assay_id>  (77) 
ASSAY-02-06

>  <standard_relation>  (77) 
=

>  <pIC50>  (77) 
5.69

>  <project_note>  (77) 
primary measurement

>  <source_row>  (77) 
77

>  <status>  (77) 
accepted

>  <duplicate_group_size>  (77) 
1

>  <source_rows>  (77) 
77

>  <patent_ids>  (77) 
DEMO-102-A1

>  <assignees>  (77) 
Helixbridge Pharma

>  <molecular_weight>  (77) 
176.137

>  <clogp>  (77) 
2.894

>  <tpsa>  (77) 
9.23

>  <hbd>  (77) 
0

>  <hba>  (77) 
1

>  <rotatable_bonds>  (77) 
1

>  <heavy_atoms>  (77) 
12

>  <rings>  (77) 
1

>  <pIC50_median>  (77) 
5.69

>  <n_measurements>  (77) 
1.0

>  <murcko_scaffold>  (77) 
c1ccccc1

>  <scaffold_id>  (77) 
S001

>  <cluster_id>  (77) 
C013

$$$$
DPC0078
     RDKit          2D

 13 14  0  0  0  0  0  0  0  0999 V2000
    3.0000    0.0000    0.0000 C   0  0  0  0  0  0  0  0  0  0  0  0
    1.5000    0.0000    0.0000 C   0  0  0  0  0  0  0  0  0  0  0  0
    0.7500   -1.2990    0.0000 C   0  0  0  0  0  0  0  0  0  0  0  0
   -0.7500   -1.2990    0.0000 C   0  0  0  0  0  0  0  0  0  0  0  0
   -1.5000    0.0000    0.0000 C   0  0  0  0  0  0  0  0  0  0  0  0
   -3.0000    0.0000    0.0000 N   0  0  0  0  0  0  0  0  0  0  0  0
   -3.7500    1.2990    0.0000 C   0  0  0  0  0  0  0  0  0  0  0  0
   -5.2500    1.2990    0.0000 C   0  0  0  0  0  0  0  0  0  0  0  0
   -6.0000    0.0000    0.0000 O   0  0  0  0  0  0  0  0  0  0  0  0
   -5.2500   -1.2990    0.0000 C   0  0  0  0  0  0  0  0  0  0  0  0
   -3.7500   -1.2990    0.0000 C   0  0  0  0  0  0  0  0  0  0  0  0
   -0.7500    1.2990    0.0000 C   0  0  0  0  0  0  0  0  0  0  0  0
    0.7500    1.2990    0.0000 C   0  0  0  0  0  0  0  0  0  0  0  0
  1  2  1  0
  2  3  1  0
  3  4  2  0
  4  5  1  0
  5  6  1  0
  6  7  1  0
  7  8  1  0
  8  9  1  0
  9 10  1  0
 10 11  1  0
  5 12  2  0
 12 13  1  0
 13  2  2  0
 11  6  1  0
M  END
>  <compound_id>  (78) 
DPC0078

>  <smiles>  (78) 
Cc1ccc(N2CCOCC2)cc1

>  <patent_id>  (78) 
DEMO-102-A1

>  <assignee>  (78) 
Helixbridge Pharma

>  <publication_date>  (78) 
2022-10-06

>  <year>  (78) 
2022

>  <series>  (78) 
phenyl

>  <assay_id>  (78) 
ASSAY-02-07

>  <standard_relation>  (78) 
=

>  <pIC50>  (78) 
6.03

>  <project_note>  (78) 
primary measurement

>  <source_row>  (78) 
78

>  <status>  (78) 
accepted

>  <duplicate_group_size>  (78) 
1

>  <source_rows>  (78) 
78

>  <patent_ids>  (78) 
DEMO-102-A1

>  <assignees>  (78) 
Helixbridge Pharma

>  <molecular_weight>  (78) 
177.247

>  <clogp>  (78) 
1.832

>  <tpsa>  (78) 
12.47

>  <hbd>  (78) 
0

>  <hba>  (78) 
2

>  <rotatable_bonds>  (78) 
1

>  <heavy_atoms>  (78) 
13

>  <rings>  (78) 
2

>  <pIC50_median>  (78) 
6.03

>  <n_measurements>  (78) 
1.0

>  <murcko_scaffold>  (78) 
c1ccc(N2CCOCC2)cc1

>  <scaffold_id>  (78) 
S002

>  <cluster_id>  (78) 
C011

$$$$
DPC0079
     RDKit          2D

 10 11  0  0  0  0  0  0  0  0999 V2000
    3.0000    0.0000    0.0000 C   0  0  0  0  0  0  0  0  0  0  0  0
    1.5000    0.0000    0.0000 C   0  0  0  0  0  0  0  0  0  0  0  0
    0.7500   -1.2990    0.0000 C   0  0  0  0  0  0  0  0  0  0  0  0
   -0.7500   -1.2990    0.0000 C   0  0  0  0  0  0  0  0  0  0  0  0
   -1.5000    0.0000    0.0000 C   0  0  0  0  0  0  0  0  0  0  0  0
   -3.0000    0.0000    0.0000 C   0  0  0  0  0  0  0  0  0  0  0  0
   -4.2990   -0.7500    0.0000 C   0  0  0  0  0  0  0  0  0  0  0  0
   -4.2990    0.7500    0.0000 C   0  0  0  0  0  0  0  0  0  0  0  0
   -0.7500    1.2990    0.0000 C   0  0  0  0  0  0  0  0  0  0  0  0
    0.7500    1.2990    0.0000 C   0  0  0  0  0  0  0  0  0  0  0  0
  1  2  1  0
  2  3  1  0
  3  4  2  0
  4  5  1  0
  5  6  1  0
  6  7  1  0
  7  8  1  0
  5  9  2  0
  9 10  1  0
 10  2  2  0
  8  6  1  0
M  END
>  <compound_id>  (79) 
DPC0079

>  <smiles>  (79) 
Cc1ccc(C2CC2)cc1

>  <patent_id>  (79) 
DEMO-102-A1

>  <assignee>  (79) 
Helixbridge Pharma

>  <publication_date>  (79) 
2022-10-06

>  <year>  (79) 
2022

>  <series>  (79) 
phenyl

>  <assay_id>  (79) 
ASSAY-02-08

>  <standard_relation>  (79) 
=

>  <pIC50>  (79) 
5.83

>  <project_note>  (79) 
primary measurement

>  <source_row>  (79) 
79

>  <status>  (79) 
accepted

>  <duplicate_group_size>  (79) 
1

>  <source_rows>  (79) 
79

>  <patent_ids>  (79) 
DEMO-102-A1

>  <assignees>  (79) 
Helixbridge Pharma

>  <molecular_weight>  (79) 
132.206

>  <clogp>  (79) 
2.872

>  <tpsa>  (79) 
0.0

>  <hbd>  (79) 
0

>  <hba>  (79) 
0

>  <rotatable_bonds>  (79) 
1

>  <heavy_atoms>  (79) 
10

>  <rings>  (79) 
2

>  <pIC50_median>  (79) 
5.83

>  <n_measurements>  (79) 
1.0

>  <murcko_scaffold>  (79) 
c1ccc(C2CC2)cc1

>  <scaffold_id>  (79) 
S003

>  <cluster_id>  (79) 
C012

$$$$
DPC0080
     RDKit          2D

 13 14  0  0  0  0  0  0  0  0999 V2000
    3.0000    0.0000    0.0000 C   0  0  0  0  0  0  0  0  0  0  0  0
    1.5000    0.0000    0.0000 C   0  0  0  0  0  0  0  0  0  0  0  0
    0.7500   -1.2990    0.0000 C   0  0  0  0  0  0  0  0  0  0  0  0
   -0.7500   -1.2990    0.0000 C   0  0  0  0  0  0  0  0  0  0  0  0
   -1.5000    0.0000    0.0000 C   0  0  0  0  0  0  0  0  0  0  0  0
   -3.0000    0.0000    0.0000 C   0  0  0  0  0  0  0  0  0  0  0  0
   -3.7500    1.2990    0.0000 C   0  0  0  0  0  0  0  0  0  0  0  0
   -5.2500    1.2990    0.0000 C   0  0  0  0  0  0  0  0  0  0  0  0
   -6.0000    0.0000    0.0000 C   0  0  0  0  0  0  0  0  0  0  0  0
   -5.2500   -1.2990    0.0000 C   0  0  0  0  0  0  0  0  0  0  0  0
   -3.7500   -1.2990    0.0000 C   0  0  0  0  0  0  0  0  0  0  0  0
   -0.7500    1.2990    0.0000 C   0  0  0  0  0  0  0  0  0  0  0  0
    0.7500    1.2990    0.0000 C   0  0  0  0  0  0  0  0  0  0  0  0
  1  2  1  0
  2  3  1  0
  3  4  2  0
  4  5  1  0
  5  6  1  0
  6  7  1  0
  7  8  1  0
  8  9  1  0
  9 10  1  0
 10 11  1  0
  5 12  2  0
 12 13  1  0
 13  2  2  0
 11  6  1  0
M  END
>  <compound_id>  (80) 
DPC0080

>  <smiles>  (80) 
Cc1ccc(C2CCCCC2)cc1

>  <patent_id>  (80) 
DEMO-102-A1

>  <assignee>  (80) 
Helixbridge Pharma

>  <publication_date>  (80) 
2022-10-06

>  <year>  (80) 
2022

>  <series>  (80) 
phenyl

>  <assay_id>  (80) 
ASSAY-02-09

>  <standard_relation>  (80) 
=

>  <pIC50>  (80) 
5.99

>  <project_note>  (80) 
primary measurement

>  <source_row>  (80) 
80

>  <status>  (80) 
accepted

>  <duplicate_group_size>  (80) 
1

>  <source_rows>  (80) 
80

>  <patent_ids>  (80) 
DEMO-102-A1

>  <assignees>  (80) 
Helixbridge Pharma

>  <molecular_weight>  (80) 
174.287

>  <clogp>  (80) 
4.043

>  <tpsa>  (80) 
0.0

>  <hbd>  (80) 
0

>  <hba>  (80) 
0

>  <rotatable_bonds>  (80) 
1

>  <heavy_atoms>  (80) 
13

>  <rings>  (80) 
2

>  <pIC50_median>  (80) 
5.99

>  <n_measurements>  (80) 
1.0

>  <murcko_scaffold>  (80) 
c1ccc(C2CCCCC2)cc1

>  <scaffold_id>  (80) 
S004

>  <cluster_id>  (80) 
C012

$$$$
DPC0081
     RDKit          2D

  8  8  0  0  0  0  0  0  0  0999 V2000
    3.0000    0.0000    0.0000 C   0  0  0  0  0  0  0  0  0  0  0  0
    1.5000    0.0000    0.0000 C   0  0  0  0  0  0  0  0  0  0  0  0
    0.7500   -1.2990    0.0000 C   0  0  0  0  0  0  0  0  0  0  0  0
   -0.7500   -1.2990    0.0000 C   0  0  0  0  0  0  0  0  0  0  0  0
   -1.5000    0.0000    0.0000 C   0  0  0  0  0  0  0  0  0  0  0  0
   -3.0000    0.0000    0.0000 O   0  0  0  0  0  0  0  0  0  0  0  0
   -0.7500    1.2990    0.0000 C   0  0  0  0  0  0  0  0  0  0  0  0
    0.7500    1.2990    0.0000 C   0  0  0  0  0  0  0  0  0  0  0  0
  1  2  1  0
  2  3  1  0
  3  4  2  0
  4  5  1  0
  5  6  1  0
  5  7  2  0
  7  8  1  0
  8  2  2  0
M  END
>  <compound_id>  (81) 
DPC0081

>  <smiles>  (81) 
Cc1ccc(O)cc1

>  <patent_id>  (81) 
DEMO-102-A1

>  <assignee>  (81) 
Helixbridge Pharma

>  <publication_date>  (81) 
2022-10-06

>  <year>  (81) 
2022

>  <series>  (81) 
phenyl

>  <assay_id>  (81) 
ASSAY-02-10

>  <standard_relation>  (81) 
=

>  <pIC50>  (81) 
5.73

>  <project_note>  (81) 
primary measurement

>  <source_row>  (81) 
81

>  <status>  (81) 
accepted

>  <duplicate_group_size>  (81) 
1

>  <source_rows>  (81) 
81

>  <patent_ids>  (81) 
DEMO-102-A1

>  <assignees>  (81) 
Helixbridge Pharma

>  <molecular_weight>  (81) 
108.14

>  <clogp>  (81) 
1.701

>  <tpsa>  (81) 
20.23

>  <hbd>  (81) 
1

>  <hba>  (81) 
1

>  <rotatable_bonds>  (81) 
0

>  <heavy_atoms>  (81) 
8

>  <rings>  (81) 
1

>  <pIC50_median>  (81) 
5.73

>  <n_measurements>  (81) 
1.0

>  <murcko_scaffold>  (81) 
c1ccccc1

>  <scaffold_id>  (81) 
S001

>  <cluster_id>  (81) 
C017

$$$$
DPC0082
     RDKit          2D

 10 10  0  0  0  0  0  0  0  0999 V2000
    3.0000    0.0000    0.0000 C   0  0  0  0  0  0  0  0  0  0  0  0
    1.5000    0.0000    0.0000 C   0  0  0  0  0  0  0  0  0  0  0  0
    0.7500   -1.2990    0.0000 C   0  0  0  0  0  0  0  0  0  0  0  0
   -0.7500   -1.2990    0.0000 C   0  0  0  0  0  0  0  0  0  0  0  0
   -1.5000    0.0000    0.0000 C   0  0  0  0  0  0  0  0  0  0  0  0
   -3.0000    0.0000    0.0000 C   0  0  0  0  0  0  0  0  0  0  0  0
   -3.7500   -1.2990    0.0000 O   0  0  0  0  0  0  0  0  0  0  0  0
   -3.7500    1.2990    0.0000 O   0  0  0  0  0  0  0  0  0  0  0  0
   -0.7500    1.2990    0.0000 C   0  0  0  0  0  0  0  0  0  0  0  0
    0.7500    1.2990    0.0000 C   0  0  0  0  0  0  0  0  0  0  0  0
  1  2  1  0
  2  3  1  0
  3  4  2  0
  4  5  1  0
  5  6  1  0
  6  7  2  0
  6  8  1  0
  5  9  2  0
  9 10  1  0
 10  2  2  0
M  END
>  <compound_id>  (82) 
DPC0082

>  <smiles>  (82) 
Cc1ccc(C(=O)O)cc1

>  <patent_id>  (82) 
DEMO-102-A1

>  <assignee>  (82) 
Helixbridge Pharma

>  <publication_date>  (82) 
2022-10-06

>  <year>  (82) 
2022

>  <series>  (82) 
phenyl

>  <assay_id>  (82) 
ASSAY-02-11

>  <standard_relation>  (82) 
=

>  <pIC50>  (82) 
5.69

>  <project_note>  (82) 
primary measurement

>  <source_row>  (82) 
82

>  <status>  (82) 
accepted

>  <duplicate_group_size>  (82) 
1

>  <source_rows>  (82) 
82

>  <patent_ids>  (82) 
DEMO-102-A1

>  <assignees>  (82) 
Helixbridge Pharma

>  <molecular_weight>  (82) 
136.15

>  <clogp>  (82) 
1.693

>  <tpsa>  (82) 
37.3

>  <hbd>  (82) 
1

>  <hba>  (82) 
1

>  <rotatable_bonds>  (82) 
1

>  <heavy_atoms>  (82) 
10

>  <rings>  (82) 
1

>  <pIC50_median>  (82) 
5.69

>  <n_measurements>  (82) 
1.0

>  <murcko_scaffold>  (82) 
c1ccccc1

>  <scaffold_id>  (82) 
S001

>  <cluster_id>  (82) 
C032

$$$$
DPC0083
     RDKit          2D

 10 10  0  0  0  0  0  0  0  0999 V2000
    3.7500   -1.2990    0.0000 C   0  0  0  0  0  0  0  0  0  0  0  0
    3.0000    0.0000    0.0000 C   0  0  0  0  0  0  0  0  0  0  0  0
    1.5000    0.0000    0.0000 C   0  0  0  0  0  0  0  0  0  0  0  0
    0.7500   -1.2990    0.0000 C   0  0  0  0  0  0  0  0  0  0  0  0
   -0.7500   -1.2990    0.0000 C   0  0  0  0  0  0  0  0  0  0  0  0
   -1.5000    0.0000    0.0000 C   0  0  0  0  0  0  0  0  0  0  0  0
   -3.0000    0.0000    0.0000 C   0  0  0  0  0  0  0  0  0  0  0  0
   -3.7500    1.2990    0.0000 C   0  0  0  0  0  0  0  0  0  0  0  0
   -0.7500    1.2990    0.0000 C   0  0  0  0  0  0  0  0  0  0  0  0
    0.7500    1.2990    0.0000 C   0  0  0  0  0  0  0  0  0  0  0  0
  1  2  1  0
  2  3  1  0
  3  4  1  0
  4  5  2  0
  5  6  1  0
  6  7  1  0
  7  8  1  0
  6  9  2  0
  9 10  1  0
 10  3  2  0
M  END
>  <compound_id>  (83) 
DPC0083

>  <smiles>  (83) 
CCc1ccc(CC)cc1

>  <patent_id>  (83) 
DEMO-102-A1

>  <assignee>  (83) 
Helixbridge Pharma

>  <publication_date>  (83) 
2022-10-06

>  <year>  (83) 
2022

>  <series>  (83) 
phenyl

>  <assay_id>  (83) 
ASSAY-02-12

>  <standard_relation>  (83) 
=

>  <pIC50>  (83) 
5.66

>  <project_note>  (83) 
primary measurement

>  <source_row>  (83) 
83

>  <status>  (83) 
accepted

>  <duplicate_group_size>  (83) 
1

>  <source_rows>  (83) 
83

>  <patent_ids>  (83) 
DEMO-102-A1

>  <assignees>  (83) 
Helixbridge Pharma

>  <molecular_weight>  (83) 
134.222

>  <clogp>  (83) 
2.811

>  <tpsa>  (83) 
0.0

>  <hbd>  (83) 
0

>  <hba>  (83) 
0

>  <rotatable_bonds>  (83) 
2

>  <heavy_atoms>  (83) 
10

>  <rings>  (83) 
1

>  <pIC50_median>  (83) 
5.66

>  <n_measurements>  (83) 
1.0

>  <murcko_scaffold>  (83) 
c1ccccc1

>  <scaffold_id>  (83) 
S001

>  <cluster_id>  (83) 
C005

$$$$
DPC0084
     RDKit          2D

 11 11  0  0  0  0  0  0  0  0999 V2000
    5.2500   -1.2990    0.0000 C   0  0  0  0  0  0  0  0  0  0  0  0
    3.7500   -1.2990    0.0000 C   0  0  0  0  0  0  0  0  0  0  0  0
    3.0000    0.0000    0.0000 C   0  0  0  0  0  0  0  0  0  0  0  0
    1.5000    0.0000    0.0000 C   0  0  0  0  0  0  0  0  0  0  0  0
    0.7500   -1.2990    0.0000 C   0  0  0  0  0  0  0  0  0  0  0  0
   -0.7500   -1.2990    0.0000 C   0  0  0  0  0  0  0  0  0  0  0  0
   -1.5000    0.0000    0.0000 C   0  0  0  0  0  0  0  0  0  0  0  0
   -3.0000    0.0000    0.0000 C   0  0  0  0  0  0  0  0  0  0  0  0
   -3.7500    1.2990    0.0000 C   0  0  0  0  0  0  0  0  0  0  0  0
   -0.7500    1.2990    0.0000 C   0  0  0  0  0  0  0  0  0  0  0  0
    0.7500    1.2990    0.0000 C   0  0  0  0  0  0  0  0  0  0  0  0
  1  2  1  0
  2  3  1  0
  3  4  1  0
  4  5  1  0
  5  6  2  0
  6  7  1  0
  7  8  1  0
  8  9  1  0
  7 10  2  0
 10 11  1  0
 11  4  2  0
M  END
>  <compound_id>  (84) 
DPC0084

>  <smiles>  (84) 
CCCc1ccc(CC)cc1

>  <patent_id>  (84) 
DEMO-102-A1

>  <assignee>  (84) 
Helixbridge Pharma

>  <publication_date>  (84) 
2022-10-06

>  <year>  (84) 
2022

>  <series>  (84) 
phenyl

>  <assay_id>  (84) 
ASSAY-02-01

>  <standard_relation>  (84) 
=

>  <pIC50>  (84) 
5.59

>  <project_note>  (84) 
primary measurement

>  <source_row>  (84) 
84

>  <status>  (84) 
accepted

>  <duplicate_group_size>  (84) 
1

>  <source_rows>  (84) 
84

>  <patent_ids>  (84) 
DEMO-102-A1

>  <assignees>  (84) 
Helixbridge Pharma

>  <molecular_weight>  (84) 
148.249

>  <clogp>  (84) 
3.202

>  <tpsa>  (84) 
0.0

>  <hbd>  (84) 
0

>  <hba>  (84) 
0

>  <rotatable_bonds>  (84) 
3

>  <heavy_atoms>  (84) 
11

>  <rings>  (84) 
1

>  <pIC50_median>  (84) 
5.59

>  <n_measurements>  (84) 
1.0

>  <murcko_scaffold>  (84) 
c1ccccc1

>  <scaffold_id>  (84) 
S001

>  <cluster_id>  (84) 
C002

$$$$
DPC0085
     RDKit          2D

 10 10  0  0  0  0  0  0  0  0999 V2000
    3.7500   -1.2990    0.0000 C   0  0  0  0  0  0  0  0  0  0  0  0
    3.0000    0.0000    0.0000 C   0  0  0  0  0  0  0  0  0  0  0  0
    1.5000    0.0000    0.0000 C   0  0  0  0  0  0  0  0  0  0  0  0
    0.7500   -1.2990    0.0000 C   0  0  0  0  0  0  0  0  0  0  0  0
   -0.7500   -1.2990    0.0000 C   0  0  0  0  0  0  0  0  0  0  0  0
   -1.5000    0.0000    0.0000 C   0  0  0  0  0  0  0  0  0  0  0  0
   -3.0000    0.0000    0.0000 O   0  0  0  0  0  0  0  0  0  0  0  0
   -3.7500    1.2990    0.0000 C   0  0  0  0  0  0  0  0  0  0  0  0
   -0.7500    1.2990    0.0000 C   0  0  0  0  0  0  0  0  0  0  0  0
    0.7500    1.2990    0.0000 C   0  0  0  0  0  0  0  0  0  0  0  0
  1  2  1  0
  2  3  1  0
  3  4  1  0
  4  5  2  0
  5  6  1  0
  6  7  1  0
  7  8  1  0
  6  9  2  0
  9 10  1  0
 10  3  2  0
M  END
>  <compound_id>  (85) 
DPC0085

>  <smiles>  (85) 
CCc1ccc(OC)cc1

>  <patent_id>  (85) 
DEMO-102-A1

>  <assignee>  (85) 
Helixbridge Pharma

>  <publication_date>  (85) 
2022-10-06

>  <year>  (85) 
2022

>  <series>  (85) 
phenyl

>  <assay_id>  (85) 
ASSAY-02-02

>  <standard_relation>  (85) 
=

>  <pIC50>  (85) 
5.78

>  <project_note>  (85) 
primary measurement

>  <source_row>  (85) 
85

>  <status>  (85) 
accepted

>  <duplicate_group_size>  (85) 
1

>  <source_rows>  (85) 
85

>  <patent_ids>  (85) 
DEMO-102-A1

>  <assignees>  (85) 
Helixbridge Pharma

>  <molecular_weight>  (85) 
136.194

>  <clogp>  (85) 
2.258

>  <tpsa>  (85) 
9.23

>  <hbd>  (85) 
0

>  <hba>  (85) 
1

>  <rotatable_bonds>  (85) 
2

>  <heavy_atoms>  (85) 
10

>  <rings>  (85) 
1

>  <pIC50_median>  (85) 
5.78

>  <n_measurements>  (85) 
1.0

>  <murcko_scaffold>  (85) 
c1ccccc1

>  <scaffold_id>  (85) 
S001

>  <cluster_id>  (85) 
C004

$$$$
DPC0086
     RDKit          2D

 11 11  0  0  0  0  0  0  0  0999 V2000
    5.2500   -1.2990    0.0000 C   0  0  0  0  0  0  0  0  0  0  0  0
    3.7500   -1.2990    0.0000 C   0  0  0  0  0  0  0  0  0  0  0  0
    3.0000    0.0000    0.0000 O   0  0  0  0  0  0  0  0  0  0  0  0
    1.5000    0.0000    0.0000 C   0  0  0  0  0  0  0  0  0  0  0  0
    0.7500   -1.2990    0.0000 C   0  0  0  0  0  0  0  0  0  0  0  0
   -0.7500   -1.2990    0.0000 C   0  0  0  0  0  0  0  0  0  0  0  0
   -1.5000    0.0000    0.0000 C   0  0  0  0  0  0  0  0  0  0  0  0
   -3.0000    0.0000    0.0000 C   0  0  0  0  0  0  0  0  0  0  0  0
   -3.7500    1.2990    0.0000 C   0  0  0  0  0  0  0  0  0  0  0  0
   -0.7500    1.2990    0.0000 C   0  0  0  0  0  0  0  0  0  0  0  0
    0.7500    1.2990    0.0000 C   0  0  0  0  0  0  0  0  0  0  0  0
  1  2  1  0
  2  3  1  0
  3  4  1  0
  4  5  1  0
  5  6  2  0
  6  7  1  0
  7  8  1  0
  8  9  1  0
  7 10  2  0
 10 11  1  0
 11  4  2  0
M  END
>  <compound_id>  (86) 
DPC0086

>  <smiles>  (86) 
CCOc1ccc(CC)cc1

>  <patent_id>  (86) 
DEMO-102-A1

>  <assignee>  (86) 
Helixbridge Pharma

>  <publication_date>  (86) 
2022-10-06

>  <year>  (86) 
2022

>  <series>  (86) 
phenyl

>  <assay_id>  (86) 
ASSAY-02-03

>  <standard_relation>  (86) 
=

>  <pIC50>  (86) 
5.96

>  <project_note>  (86) 
primary measurement

>  <source_row>  (86) 
86

>  <status>  (86) 
accepted

>  <duplicate_group_size>  (86) 
1

>  <source_rows>  (86) 
86

>  <patent_ids>  (86) 
DEMO-102-A1

>  <assignees>  (86) 
Helixbridge Pharma

>  <molecular_weight>  (86) 
150.221

>  <clogp>  (86) 
2.648

>  <tpsa>  (86) 
9.23

>  <hbd>  (86) 
0

>  <hba>  (86) 
1

>  <rotatable_bonds>  (86) 
3

>  <heavy_atoms>  (86) 
11

>  <rings>  (86) 
1

>  <pIC50_median>  (86) 
5.96

>  <n_measurements>  (86) 
1.0

>  <murcko_scaffold>  (86) 
c1ccccc1

>  <scaffold_id>  (86) 
S001

>  <cluster_id>  (86) 
C001

$$$$
DPC0087
     RDKit          2D

  9  9  0  0  0  0  0  0  0  0999 V2000
    3.7500   -1.2990    0.0000 C   0  0  0  0  0  0  0  0  0  0  0  0
    3.0000    0.0000    0.0000 C   0  0  0  0  0  0  0  0  0  0  0  0
    1.5000    0.0000    0.0000 C   0  0  0  0  0  0  0  0  0  0  0  0
    0.7500   -1.2990    0.0000 C   0  0  0  0  0  0  0  0  0  0  0  0
   -0.7500   -1.2990    0.0000 C   0  0  0  0  0  0  0  0  0  0  0  0
   -1.5000    0.0000    0.0000 C   0  0  0  0  0  0  0  0  0  0  0  0
   -3.0000    0.0000    0.0000 N   0  0  0  0  0  0  0  0  0  0  0  0
   -0.7500    1.2990    0.0000 C   0  0  0  0  0  0  0  0  0  0  0  0
    0.7500    1.2990    0.0000 C   0  0  0  0  0  0  0  0  0  0  0  0
  1  2  1  0
  2  3  1  0
  3  4  1  0
  4  5  2  0
  5  6  1  0
  6  7  1  0
  6  8  2  0
  8  9  1  0
  9  3  2  0
M  END
>  <compound_id>  (87) 
DPC0087

>  <smiles>  (87) 
CCc1ccc(N)cc1

>  <patent_id>  (87) 
DEMO-102-A1

>  <assignee>  (87) 
Helixbridge Pharma

>  <publication_date>  (87) 
2022-10-06

>  <year>  (87) 
2022

>  <series>  (87) 
phenyl

>  <assay_id>  (87) 
ASSAY-02-04

>  <standard_relation>  (87) 
=

>  <pIC50>  (87) 
5.98

>  <project_note>  (87) 
primary measurement

>  <source_row>  (87) 
87

>  <status>  (87) 
accepted

>  <duplicate_group_size>  (87) 
1

>  <source_rows>  (87) 
87

>  <patent_ids>  (87) 
DEMO-102-A1

>  <assignees>  (87) 
Helixbridge Pharma

>  <molecular_weight>  (87) 
121.183

>  <clogp>  (87) 
1.831

>  <tpsa>  (87) 
26.02

>  <hbd>  (87) 
1

>  <hba>  (87) 
1

>  <rotatable_bonds>  (87) 
1

>  <heavy_atoms>  (87) 
9

>  <rings>  (87) 
1

>  <pIC50_median>  (87) 
5.98

>  <n_measurements>  (87) 
1.0

>  <murcko_scaffold>  (87) 
c1ccccc1

>  <scaffold_id>  (87) 
S001

>  <cluster_id>  (87) 
C005

$$$$
DPC0088
     RDKit          2D

 10 10  0  0  0  0  0  0  0  0999 V2000
    3.7500   -1.2990    0.0000 C   0  0  0  0  0  0  0  0  0  0  0  0
    3.0000    0.0000    0.0000 C   0  0  0  0  0  0  0  0  0  0  0  0
    1.5000    0.0000    0.0000 C   0  0  0  0  0  0  0  0  0  0  0  0
    0.7500   -1.2990    0.0000 C   0  0  0  0  0  0  0  0  0  0  0  0
   -0.7500   -1.2990    0.0000 C   0  0  0  0  0  0  0  0  0  0  0  0
   -1.5000    0.0000    0.0000 C   0  0  0  0  0  0  0  0  0  0  0  0
   -3.0000    0.0000    0.0000 N   0  0  0  0  0  0  0  0  0  0  0  0
   -3.7500    1.2990    0.0000 C   0  0  0  0  0  0  0  0  0  0  0  0
   -0.7500    1.2990    0.0000 C   0  0  0  0  0  0  0  0  0  0  0  0
    0.7500    1.2990    0.0000 C   0  0  0  0  0  0  0  0  0  0  0  0
  1  2  1  0
  2  3  1  0
  3  4  1  0
  4  5  2  0
  5  6  1  0
  6  7  1  0
  7  8  1  0
  6  9  2  0
  9 10  1  0
 10  3  2  0
M  END
>  <compound_id>  (88) 
DPC0088

>  <smiles>  (88) 
CCc1ccc(NC)cc1

>  <patent_id>  (88) 
DEMO-102-A1

>  <assignee>  (88) 
Helixbridge Pharma

>  <publication_date>  (88) 
2022-10-06

>  <year>  (88) 
2022

>  <series>  (88) 
phenyl

>  <assay_id>  (88) 
ASSAY-02-05

>  <standard_relation>  (88) 
=

>  <pIC50>  (88) 
6.11

>  <project_note>  (88) 
primary measurement

>  <source_row>  (88) 
88

>  <status>  (88) 
accepted

>  <duplicate_group_size>  (88) 
1

>  <source_rows>  (88) 
88

>  <patent_ids>  (88) 
DEMO-102-A1

>  <assignees>  (88) 
Helixbridge Pharma

>  <molecular_weight>  (88) 
135.21

>  <clogp>  (88) 
2.291

>  <tpsa>  (88) 
12.03

>  <hbd>  (88) 
1

>  <hba>  (88) 
1

>  <rotatable_bonds>  (88) 
2

>  <heavy_atoms>  (88) 
10

>  <rings>  (88) 
1

>  <pIC50_median>  (88) 
6.11

>  <n_measurements>  (88) 
1.0

>  <murcko_scaffold>  (88) 
c1ccccc1

>  <scaffold_id>  (88) 
S001

>  <cluster_id>  (88) 
C005

$$$$
DPC0089
     RDKit          2D

 11 11  0  0  0  0  0  0  0  0999 V2000
    3.7500   -1.2990    0.0000 C   0  0  0  0  0  0  0  0  0  0  0  0
    3.0000    0.0000    0.0000 C   0  0  0  0  0  0  0  0  0  0  0  0
    1.5000    0.0000    0.0000 C   0  0  0  0  0  0  0  0  0  0  0  0
    0.7500   -1.2990    0.0000 C   0  0  0  0  0  0  0  0  0  0  0  0
   -0.7500   -1.2990    0.0000 C   0  0  0  0  0  0  0  0  0  0  0  0
   -1.5000    0.0000    0.0000 C   0  0  0  0  0  0  0  0  0  0  0  0
   -3.0000    0.0000    0.0000 N   0  0  0  0  0  0  0  0  0  0  0  0
   -3.7500    1.2990    0.0000 C   0  0  0  0  0  0  0  0  0  0  0  0
   -3.7500   -1.2990    0.0000 C   0  0  0  0  0  0  0  0  0  0  0  0
   -0.7500    1.2990    0.0000 C   0  0  0  0  0  0  0  0  0  0  0  0
    0.7500    1.2990    0.0000 C   0  0  0  0  0  0  0  0  0  0  0  0
  1  2  1  0
  2  3  1  0
  3  4  1  0
  4  5  2  0
  5  6  1  0
  6  7  1  0
  7  8  1  0
  7  9  1  0
  6 10  2  0
 10 11  1  0
 11  3  2  0
M  END
>  <compound_id>  (89) 
DPC0089

>  <smiles>  (89) 
CCc1ccc(N(C)C)cc1

>  <patent_id>  (89) 
DEMO-102-A1

>  <assignee>  (89) 
Helixbridge Pharma

>  <publication_date>  (89) 
2022-10-06

>  <year>  (89) 
2022

>  <series>  (89) 
phenyl

>  <assay_id>  (89) 
ASSAY-02-06

>  <standard_relation>  (89) 
=

>  <pIC50>  (89) 
6.16

>  <project_note>  (89) 
primary measurement

>  <source_row>  (89) 
89

>  <status>  (89) 
accepted

>  <duplicate_group_size>  (89) 
1

>  <source_rows>  (89) 
89

>  <patent_ids>  (89) 
DEMO-102-A1

>  <assignees>  (89) 
Helixbridge Pharma

>  <molecular_weight>  (89) 
149.237

>  <clogp>  (89) 
2.315

>  <tpsa>  (89) 
3.24

>  <hbd>  (89) 
0

>  <hba>  (89) 
1

>  <rotatable_bonds>  (89) 
2

>  <heavy_atoms>  (89) 
11

>  <rings>  (89) 
1

>  <pIC50_median>  (89) 
6.16

>  <n_measurements>  (89) 
1.0

>  <murcko_scaffold>  (89) 
c1ccccc1

>  <scaffold_id>  (89) 
S001

>  <cluster_id>  (89) 
C005

$$$$
DPC0090
     RDKit          2D

 10 10  0  0  0  0  0  0  0  0999 V2000
    3.7500   -1.2990    0.0000 C   0  0  0  0  0  0  0  0  0  0  0  0
    3.0000    0.0000    0.0000 C   0  0  0  0  0  0  0  0  0  0  0  0
    1.5000    0.0000    0.0000 C   0  0  0  0  0  0  0  0  0  0  0  0
    0.7500   -1.2990    0.0000 C   0  0  0  0  0  0  0  0  0  0  0  0
   -0.7500   -1.2990    0.0000 C   0  0  0  0  0  0  0  0  0  0  0  0
   -1.5000    0.0000    0.0000 C   0  0  0  0  0  0  0  0  0  0  0  0
   -3.0000    0.0000    0.0000 C   0  0  0  0  0  0  0  0  0  0  0  0
   -4.5000    0.0000    0.0000 N   0  0  0  0  0  0  0  0  0  0  0  0
   -0.7500    1.2990    0.0000 C   0  0  0  0  0  0  0  0  0  0  0  0
    0.7500    1.2990    0.0000 C   0  0  0  0  0  0  0  0  0  0  0  0
  1  2  1  0
  2  3  1  0
  3  4  1  0
  4  5  2  0
  5  6  1  0
  6  7  1  0
  7  8  3  0
  6  9  2  0
  9 10  1  0
 10  3  2  0
M  END
>  <compound_id>  (90) 
DPC0090

>  <smiles>  (90) 
CCc1ccc(C#N)cc1

>  <patent_id>  (90) 
DEMO-102-A1

>  <assignee>  (90) 
Helixbridge Pharma

>  <publication_date>  (90) 
2022-10-06

>  <year>  (90) 
2022

>  <series>  (90) 
phenyl

>  <assay_id>  (90) 
ASSAY-02-07

>  <standard_relation>  (90) 
=

>  <pIC50>  (90) 
6.12

>  <project_note>  (90) 
primary measurement

>  <source_row>  (90) 
90

>  <status>  (90) 
accepted

>  <duplicate_group_size>  (90) 
1

>  <source_rows>  (90) 
90

>  <patent_ids>  (90) 
DEMO-102-A1

>  <assignees>  (90) 
Helixbridge Pharma

>  <molecular_weight>  (90) 
131.178

>  <clogp>  (90) 
2.121

>  <tpsa>  (90) 
23.79

>  <hbd>  (90) 
0

>  <hba>  (90) 
1

>  <rotatable_bonds>  (90) 
1

>  <heavy_atoms>  (90) 
10

>  <rings>  (90) 
1

>  <pIC50_median>  (90) 
6.12

>  <n_measurements>  (90) 
1.0

>  <murcko_scaffold>  (90) 
c1ccccc1

>  <scaffold_id>  (90) 
S001

>  <cluster_id>  (90) 
C005

$$$$
DPC0091
     RDKit          2D

 12 12  0  0  0  0  0  0  0  0999 V2000
    3.7500   -1.2990    0.0000 C   0  0  0  0  0  0  0  0  0  0  0  0
    3.0000    0.0000    0.0000 C   0  0  0  0  0  0  0  0  0  0  0  0
    1.5000    0.0000    0.0000 C   0  0  0  0  0  0  0  0  0  0  0  0
    0.7500   -1.2990    0.0000 C   0  0  0  0  0  0  0  0  0  0  0  0
   -0.7500   -1.2990    0.0000 C   0  0  0  0  0  0  0  0  0  0  0  0
   -1.5000    0.0000    0.0000 C   0  0  0  0  0  0  0  0  0  0  0  0
   -3.0000    0.0000    0.0000 C   0  0  0  0  0  0  0  0  0  0  0  0
   -4.5000    0.0000    0.0000 F   0  0  0  0  0  0  0  0  0  0  0  0
   -3.0000    1.5000    0.0000 F   0  0  0  0  0  0  0  0  0  0  0  0
   -3.0000   -1.5000    0.0000 F   0  0  0  0  0  0  0  0  0  0  0  0
   -0.7500    1.2990    0.0000 C   0  0  0  0  0  0  0  0  0  0  0  0
    0.7500    1.2990    0.0000 C   0  0  0  0  0  0  0  0  0  0  0  0
  1  2  1  0
  2  3  1  0
  3  4  1  0
  4  5  2  0
  5  6  1  0
  6  7  1  0
  7  8  1  0
  7  9  1  0
  7 10  1  0
  6 11  2  0
 11 12  1  0
 12  3  2  0
M  END
>  <compound_id>  (91) 
DPC0091

>  <smiles>  (91) 
CCc1ccc(C(F)(F)F)cc1

>  <patent_id>  (91) 
DEMO-102-A1

>  <assignee>  (91) 
Helixbridge Pharma

>  <publication_date>  (91) 
2022-10-06

>  <year>  (91) 
2022

>  <series>  (91) 
phenyl

>  <assay_id>  (91) 
ASSAY-02-08

>  <standard_relation>  (91) 
=

>  <pIC50>  (91) 
5.92

>  <project_note>  (91) 
primary measurement

>  <source_row>  (91) 
91

>  <status>  (91) 
accepted

>  <duplicate_group_size>  (91) 
1

>  <source_rows>  (91) 
91

>  <patent_ids>  (91) 
DEMO-102-A1

>  <assignees>  (91) 
Helixbridge Pharma

>  <molecular_weight>  (91) 
174.165

>  <clogp>  (91) 
3.268

>  <tpsa>  (91) 
0.0

>  <hbd>  (91) 
0

>  <hba>  (91) 
0

>  <rotatable_bonds>  (91) 
1

>  <heavy_atoms>  (91) 
12

>  <rings>  (91) 
1

>  <pIC50_median>  (91) 
5.92

>  <n_measurements>  (91) 
1.0

>  <murcko_scaffold>  (91) 
c1ccccc1

>  <scaffold_id>  (91) 
S001

>  <cluster_id>  (91) 
C005

$$$$
DPC0092
     RDKit          2D

 11 11  0  0  0  0  0  0  0  0999 V2000
    3.7500   -1.2990    0.0000 C   0  0  0  0  0  0  0  0  0  0  0  0
    3.0000    0.0000    0.0000 C   0  0  0  0  0  0  0  0  0  0  0  0
    1.5000    0.0000    0.0000 C   0  0  0  0  0  0  0  0  0  0  0  0
    0.7500   -1.2990    0.0000 C   0  0  0  0  0  0  0  0  0  0  0  0
   -0.7500   -1.2990    0.0000 C   0  0  0  0  0  0  0  0  0  0  0  0
   -1.5000    0.0000    0.0000 C   0  0  0  0  0  0  0  0  0  0  0  0
   -3.0000    0.0000    0.0000 C   0  0  0  0  0  0  0  0  0  0  0  0
   -3.7500    1.2990    0.0000 N   0  0  0  0  0  0  0  0  0  0  0  0
   -3.7500   -1.2990    0.0000 O   0  0  0  0  0  0  0  0  0  0  0  0
   -0.7500    1.2990    0.0000 C   0  0  0  0  0  0  0  0  0  0  0  0
    0.7500    1.2990    0.0000 C   0  0  0  0  0  0  0  0  0  0  0  0
  1  2  1  0
  2  3  1  0
  3  4  1  0
  4  5  2  0
  5  6  1  0
  6  7  1  0
  7  8  1  0
  7  9  2  0
  6 10  2  0
 10 11  1  0
 11  3  2  0
M  END
>  <compound_id>  (92) 
DPC0092

>  <smiles>  (92) 
CCc1ccc(C(N)=O)cc1

>  <patent_id>  (92) 
DEMO-102-A1

>  <assignee>  (92) 
Helixbridge Pharma

>  <publication_date>  (92) 
2022-10-06

>  <year>  (92) 
2022

>  <series>  (92) 
phenyl

>  <assay_id>  (92) 
ASSAY-02-09

>  <standard_relation>  (92) 
<

>  <pIC50>  (92) 
5.76

>  <project_note>  (92) 
primary measurement

>  <source_row>  (92) 
92

>  <status>  (92) 
accepted

>  <duplicate_group_size>  (92) 
1

>  <source_rows>  (92) 
92

>  <patent_ids>  (92) 
DEMO-102-A1

>  <assignees>  (92) 
Helixbridge Pharma

>  <molecular_weight>  (92) 
149.193

>  <clogp>  (92) 
1.348

>  <tpsa>  (92) 
43.09

>  <hbd>  (92) 
1

>  <hba>  (92) 
1

>  <rotatable_bonds>  (92) 
2

>  <heavy_atoms>  (92) 
11

>  <rings>  (92) 
1

>  <murcko_scaffold>  (92) 
c1ccccc1

>  <scaffold_id>  (92) 
S001

>  <cluster_id>  (92) 
C003

$$$$
DPC0093
     RDKit          2D

 12 12  0  0  0  0  0  0  0  0999 V2000
    3.7500   -1.2990    0.0000 C   0  0  0  0  0  0  0  0  0  0  0  0
    3.0000    0.0000    0.0000 C   0  0  0  0  0  0  0  0  0  0  0  0
    1.5000    0.0000    0.0000 C   0  0  0  0  0  0  0  0  0  0  0  0
    0.7500   -1.2990    0.0000 C   0  0  0  0  0  0  0  0  0  0  0  0
   -0.7500   -1.2990    0.0000 C   0  0  0  0  0  0  0  0  0  0  0  0
   -1.5000    0.0000    0.0000 C   0  0  0  0  0  0  0  0  0  0  0  0
   -3.0000    0.0000    0.0000 C   0  0  0  0  0  0  0  0  0  0  0  0
   -3.7500   -1.2990    0.0000 O   0  0  0  0  0  0  0  0  0  0  0  0
   -3.7500    1.2990    0.0000 N   0  0  0  0  0  0  0  0  0  0  0  0
   -5.2500    1.2990    0.0000 C   0  0  0  0  0  0  0  0  0  0  0  0
   -0.7500    1.2990    0.0000 C   0  0  0  0  0  0  0  0  0  0  0  0
    0.7500    1.2990    0.0000 C   0  0  0  0  0  0  0  0  0  0  0  0
  1  2  1  0
  2  3  1  0
  3  4  1  0
  4  5  2  0
  5  6  1  0
  6  7  1  0
  7  8  2  0
  7  9  1  0
  9 10  1  0
  6 11  2  0
 11 12  1  0
 12  3  2  0
M  END
>  <compound_id>  (93) 
DPC0093

>  <smiles>  (93) 
CCc1ccc(C(=O)NC)cc1

>  <patent_id>  (93) 
DEMO-102-A1

>  <assignee>  (93) 
Helixbridge Pharma

>  <publication_date>  (93) 
2022-10-06

>  <year>  (93) 
2022

>  <series>  (93) 
phenyl

>  <assay_id>  (93) 
ASSAY-02-10

>  <standard_relation>  (93) 
=

>  <pIC50>  (93) 
5.81

>  <project_note>  (93) 
primary measurement

>  <source_row>  (93) 
93

>  <status>  (93) 
accepted

>  <duplicate_group_size>  (93) 
1

>  <source_rows>  (93) 
93

>  <patent_ids>  (93) 
DEMO-102-A1

>  <assignees>  (93) 
Helixbridge Pharma

>  <molecular_weight>  (93) 
163.22

>  <clogp>  (93) 
1.609

>  <tpsa>  (93) 
29.1

>  <hbd>  (93) 
1

>  <hba>  (93) 
1

>  <rotatable_bonds>  (93) 
2

>  <heavy_atoms>  (93) 
12

>  <rings>  (93) 
1

>  <pIC50_median>  (93) 
5.81

>  <n_measurements>  (93) 
1.0

>  <murcko_scaffold>  (93) 
c1ccccc1

>  <scaffold_id>  (93) 
S001

>  <cluster_id>  (93) 
C010

$$$$
DPC0094
     RDKit          2D

 12 12  0  0  0  0  0  0  0  0999 V2000
    3.7500   -1.2990    0.0000 C   0  0  0  0  0  0  0  0  0  0  0  0
    3.0000    0.0000    0.0000 C   0  0  0  0  0  0  0  0  0  0  0  0
    1.5000    0.0000    0.0000 C   0  0  0  0  0  0  0  0  0  0  0  0
    0.7500   -1.2990    0.0000 C   0  0  0  0  0  0  0  0  0  0  0  0
   -0.7500   -1.2990    0.0000 C   0  0  0  0  0  0  0  0  0  0  0  0
   -1.5000    0.0000    0.0000 C   0  0  0  0  0  0  0  0  0  0  0  0
   -3.0000    0.0000    0.0000 S   0  0  0  0  0  0  0  0  0  0  0  0
   -4.5000    0.0000    0.0000 N   0  0  0  0  0  0  0  0  0  0  0  0
   -3.0000    1.5000    0.0000 O   0  0  0  0  0  0  0  0  0  0  0  0
   -3.0000   -1.5000    0.0000 O   0  0  0  0  0  0  0  0  0  0  0  0
   -0.7500    1.2990    0.0000 C   0  0  0  0  0  0  0  0  0  0  0  0
    0.7500    1.2990    0.0000 C   0  0  0  0  0  0  0  0  0  0  0  0
  1  2  1  0
  2  3  1  0
  3  4  1  0
  4  5  2  0
  5  6  1  0
  6  7  1  0
  7  8  1  0
  7  9  2  0
  7 10  2  0
  6 11  2  0
 11 12  1  0
 12  3  2  0
M  END
>  <compound_id>  (94) 
DPC0094

>  <smiles>  (94) 
CCc1ccc(S(N)(=O)=O)cc1

>  <patent_id>  (94) 
DEMO-102-A1

>  <assignee>  (94) 
Helixbridge Pharma

>  <publication_date>  (94) 
2022-10-06

>  <year>  (94) 
2022

>  <series>  (94) 
phenyl

>  <assay_id>  (94) 
ASSAY-02-11

>  <standard_relation>  (94) 
=

>  <pIC50>  (94) 
5.76

>  <project_note>  (94) 
primary measurement

>  <source_row>  (94) 
94

>  <status>  (94) 
accepted

>  <duplicate_group_size>  (94) 
1

>  <source_rows>  (94) 
94

>  <patent_ids>  (94) 
DEMO-102-A1

>  <assignees>  (94) 
Helixbridge Pharma

>  <molecular_weight>  (94) 
185.248

>  <clogp>  (94) 
0.896

>  <tpsa>  (94) 
60.16

>  <hbd>  (94) 
1

>  <hba>  (94) 
2

>  <rotatable_bonds>  (94) 
2

>  <heavy_atoms>  (94) 
12

>  <rings>  (94) 
1

>  <pIC50_median>  (94) 
5.76

>  <n_measurements>  (94) 
1.0

>  <murcko_scaffold>  (94) 
c1ccccc1

>  <scaffold_id>  (94) 
S001

>  <cluster_id>  (94) 
C014

$$$$
DPC0095
     RDKit          2D

 13 13  0  0  0  0  0  0  0  0999 V2000
    3.7500   -1.2990    0.0000 C   0  0  0  0  0  0  0  0  0  0  0  0
    3.0000    0.0000    0.0000 C   0  0  0  0  0  0  0  0  0  0  0  0
    1.5000    0.0000    0.0000 C   0  0  0  0  0  0  0  0  0  0  0  0
    0.7500   -1.2990    0.0000 C   0  0  0  0  0  0  0  0  0  0  0  0
   -0.7500   -1.2990    0.0000 C   0  0  0  0  0  0  0  0  0  0  0  0
   -1.5000    0.0000    0.0000 C   0  0  0  0  0  0  0  0  0  0  0  0
   -3.0000    0.0000    0.0000 O   0  0  0  0  0  0  0  0  0  0  0  0
   -3.7500    1.2990    0.0000 C   0  0  0  0  0  0  0  0  0  0  0  0
   -4.5000    2.5981    0.0000 F   0  0  0  0  0  0  0  0  0  0  0  0
   -5.0490    0.5490    0.0000 F   0  0  0  0  0  0  0  0  0  0  0  0
   -2.4510    2.0490    0.0000 F   0  0  0  0  0  0  0  0  0  0  0  0
   -0.7500    1.2990    0.0000 C   0  0  0  0  0  0  0  0  0  0  0  0
    0.7500    1.2990    0.0000 C   0  0  0  0  0  0  0  0  0  0  0  0
  1  2  1  0
  2  3  1  0
  3  4  1  0
  4  5  2  0
  5  6  1  0
  6  7  1  0
  7  8  1  0
  8  9  1  0
  8 10  1  0
  8 11  1  0
  6 12  2  0
 12 13  1  0
 13  3  2  0
M  END
>  <compound_id>  (95) 
DPC0095

>  <smiles>  (95) 
CCc1ccc(OC(F)(F)F)cc1

>  <patent_id>  (95) 
DEMO-102-A1

>  <assignee>  (95) 
Helixbridge Pharma

>  <publication_date>  (95) 
2022-10-06

>  <year>  (95) 
2022

>  <series>  (95) 
phenyl

>  <assay_id>  (95) 
ASSAY-02-12

>  <standard_relation>  (95) 
=

>  <pIC50>  (95) 
5.88

>  <project_note>  (95) 
primary measurement

>  <source_row>  (95) 
95

>  <status>  (95) 
accepted

>  <duplicate_group_size>  (95) 
1

>  <source_rows>  (95) 
95

>  <patent_ids>  (95) 
DEMO-102-A1

>  <assignees>  (95) 
Helixbridge Pharma

>  <molecular_weight>  (95) 
190.164

>  <clogp>  (95) 
3.148

>  <tpsa>  (95) 
9.23

>  <hbd>  (95) 
0

>  <hba>  (95) 
1

>  <rotatable_bonds>  (95) 
2

>  <heavy_atoms>  (95) 
13

>  <rings>  (95) 
1

>  <pIC50_median>  (95) 
5.88

>  <n_measurements>  (95) 
1.0

>  <murcko_scaffold>  (95) 
c1ccccc1

>  <scaffold_id>  (95) 
S001

>  <cluster_id>  (95) 
C013

$$$$
DPC0096
     RDKit          2D

 14 15  0  0  0  0  0  0  0  0999 V2000
    3.7500   -1.2990    0.0000 C   0  0  0  0  0  0  0  0  0  0  0  0
    3.0000    0.0000    0.0000 C   0  0  0  0  0  0  0  0  0  0  0  0
    1.5000    0.0000    0.0000 C   0  0  0  0  0  0  0  0  0  0  0  0
    0.7500   -1.2990    0.0000 C   0  0  0  0  0  0  0  0  0  0  0  0
   -0.7500   -1.2990    0.0000 C   0  0  0  0  0  0  0  0  0  0  0  0
   -1.5000    0.0000    0.0000 C   0  0  0  0  0  0  0  0  0  0  0  0
   -3.0000    0.0000    0.0000 N   0  0  0  0  0  0  0  0  0  0  0  0
   -3.7500    1.2990    0.0000 C   0  0  0  0  0  0  0  0  0  0  0  0
   -5.2500    1.2990    0.0000 C   0  0  0  0  0  0  0  0  0  0  0  0
   -6.0000    0.0000    0.0000 O   0  0  0  0  0  0  0  0  0  0  0  0
   -5.2500   -1.2990    0.0000 C   0  0  0  0  0  0  0  0  0  0  0  0
   -3.7500   -1.2990    0.0000 C   0  0  0  0  0  0  0  0  0  0  0  0
   -0.7500    1.2990    0.0000 C   0  0  0  0  0  0  0  0  0  0  0  0
    0.7500    1.2990    0.0000 C   0  0  0  0  0  0  0  0  0  0  0  0
  1  2  1  0
  2  3  1  0
  3  4  1  0
  4  5  2  0
  5  6  1  0
  6  7  1  0
  7  8  1  0
  8  9  1  0
  9 10  1  0
 10 11  1  0
 11 12  1  0
  6 13  2  0
 13 14  1  0
 14  3  2  0
 12  7  1  0
M  END
>  <compound_id>  (96) 
DPC0096

>  <smiles>  (96) 
CCc1ccc(N2CCOCC2)cc1

>  <patent_id>  (96) 
DEMO-102-A1

>  <assignee>  (96) 
Helixbridge Pharma

>  <publication_date>  (96) 
2022-10-06

>  <year>  (96) 
2022

>  <series>  (96) 
phenyl

>  <assay_id>  (96) 
ASSAY-02-01

>  <standard_relation>  (96) 
=

>  <pIC50>  (96) 
6.18

>  <project_note>  (96) 
primary measurement

>  <source_row>  (96) 
96

>  <status>  (96) 
accepted

>  <duplicate_group_size>  (96) 
1

>  <source_rows>  (96) 
96

>  <patent_ids>  (96) 
DEMO-102-A1

>  <assignees>  (96) 
Helixbridge Pharma

>  <molecular_weight>  (96) 
191.274

>  <clogp>  (96) 
2.086

>  <tpsa>  (96) 
12.47

>  <hbd>  (96) 
0

>  <hba>  (96) 
2

>  <rotatable_bonds>  (96) 
2

>  <heavy_atoms>  (96) 
14

>  <rings>  (96) 
2

>  <pIC50_median>  (96) 
6.18

>  <n_measurements>  (96) 
1.0

>  <murcko_scaffold>  (96) 
c1ccc(N2CCOCC2)cc1

>  <scaffold_id>  (96) 
S002

>  <cluster_id>  (96) 
C011

$$$$
DPC0097
     RDKit          2D

 11 12  0  0  0  0  0  0  0  0999 V2000
    3.7500   -1.2990    0.0000 C   0  0  0  0  0  0  0  0  0  0  0  0
    3.0000    0.0000    0.0000 C   0  0  0  0  0  0  0  0  0  0  0  0
    1.5000    0.0000    0.0000 C   0  0  0  0  0  0  0  0  0  0  0  0
    0.7500   -1.2990    0.0000 C   0  0  0  0  0  0  0  0  0  0  0  0
   -0.7500   -1.2990    0.0000 C   0  0  0  0  0  0  0  0  0  0  0  0
   -1.5000    0.0000    0.0000 C   0  0  0  0  0  0  0  0  0  0  0  0
   -3.0000    0.0000    0.0000 C   0  0  0  0  0  0  0  0  0  0  0  0
   -4.2990   -0.7500    0.0000 C   0  0  0  0  0  0  0  0  0  0  0  0
   -4.2990    0.7500    0.0000 C   0  0  0  0  0  0  0  0  0  0  0  0
   -0.7500    1.2990    0.0000 C   0  0  0  0  0  0  0  0  0  0  0  0
    0.7500    1.2990    0.0000 C   0  0  0  0  0  0  0  0  0  0  0  0
  1  2  1  0
  2  3  1  0
  3  4  1  0
  4  5  2  0
  5  6  1  0
  6  7  1  0
  7  8  1  0
  8  9  1  0
  6 10  2  0
 10 11  1  0
 11  3  2  0
  9  7  1  0
M  END
>  <compound_id>  (97) 
DPC0097

>  <smiles>  (97) 
CCc1ccc(C2CC2)cc1

>  <patent_id>  (97) 
DEMO-102-A1

>  <assignee>  (97) 
Helixbridge Pharma

>  <publication_date>  (97) 
2022-10-06

>  <year>  (97) 
2022

>  <series>  (97) 
phenyl

>  <assay_id>  (97) 
ASSAY-02-02

>  <standard_relation>  (97) 
=

>  <pIC50>  (97) 
5.9

>  <project_note>  (97) 
primary measurement

>  <source_row>  (97) 
97

>  <status>  (97) 
accepted

>  <duplicate_group_size>  (97) 
1

>  <source_rows>  (97) 
97

>  <patent_ids>  (97) 
DEMO-102-A1

>  <assignees>  (97) 
Helixbridge Pharma

>  <molecular_weight>  (97) 
146.233

>  <clogp>  (97) 
3.126

>  <tpsa>  (97) 
0.0

>  <hbd>  (97) 
0

>  <hba>  (97) 
0

>  <rotatable_bonds>  (97) 
2

>  <heavy_atoms>  (97) 
11

>  <rings>  (97) 
2

>  <pIC50_median>  (97) 
5.9

>  <n_measurements>  (97) 
1.0

>  <murcko_scaffold>  (97) 
c1ccc(C2CC2)cc1

>  <scaffold_id>  (97) 
S003

>  <cluster_id>  (97) 
C005

$$$$
DPC0098
     RDKit          2D

 14 15  0  0  0  0  0  0  0  0999 V2000
    3.7500   -1.2990    0.0000 C   0  0  0  0  0  0  0  0  0  0  0  0
    3.0000    0.0000    0.0000 C   0  0  0  0  0  0  0  0  0  0  0  0
    1.5000    0.0000    0.0000 C   0  0  0  0  0  0  0  0  0  0  0  0
    0.7500   -1.2990    0.0000 C   0  0  0  0  0  0  0  0  0  0  0  0
   -0.7500   -1.2990    0.0000 C   0  0  0  0  0  0  0  0  0  0  0  0
   -1.5000    0.0000    0.0000 C   0  0  0  0  0  0  0  0  0  0  0  0
   -3.0000    0.0000    0.0000 C   0  0  0  0  0  0  0  0  0  0  0  0
   -3.7500    1.2990    0.0000 C   0  0  0  0  0  0  0  0  0  0  0  0
   -5.2500    1.2990    0.0000 C   0  0  0  0  0  0  0  0  0  0  0  0
   -6.0000    0.0000    0.0000 C   0  0  0  0  0  0  0  0  0  0  0  0
   -5.2500   -1.2990    0.0000 C   0  0  0  0  0  0  0  0  0  0  0  0
   -3.7500   -1.2990    0.0000 C   0  0  0  0  0  0  0  0  0  0  0  0
   -0.7500    1.2990    0.0000 C   0  0  0  0  0  0  0  0  0  0  0  0
    0.7500    1.2990    0.0000 C   0  0  0  0  0  0  0  0  0  0  0  0
  1  2  1  0
  2  3  1  0
  3  4  1  0
  4  5  2  0
  5  6  1  0
  6  7  1  0
  7  8  1  0
  8  9  1  0
  9 10  1  0
 10 11  1  0
 11 12  1  0
  6 13  2  0
 13 14  1  0
 14  3  2  0
 12  7  1  0
M  END
>  <compound_id>  (98) 
DPC0098

>  <smiles>  (98) 
CCc1ccc(C2CCCCC2)cc1

>  <patent_id>  (98) 
DEMO-102-A1

>  <assignee>  (98) 
Helixbridge Pharma

>  <publication_date>  (98) 
2022-10-06

>  <year>  (98) 
2022

>  <series>  (98) 
phenyl

>  <assay_id>  (98) 
ASSAY-02-03

>  <standard_relation>  (98) 
=

>  <pIC50>  (98) 
5.96

>  <project_note>  (98) 
primary measurement

>  <source_row>  (98) 
98

>  <status>  (98) 
accepted

>  <duplicate_group_size>  (98) 
1

>  <source_rows>  (98) 
98

>  <patent_ids>  (98) 
DEMO-102-A1

>  <assignees>  (98) 
Helixbridge Pharma

>  <molecular_weight>  (98) 
188.314

>  <clogp>  (98) 
4.297

>  <tpsa>  (98) 
0.0

>  <hbd>  (98) 
0

>  <hba>  (98) 
0

>  <rotatable_bonds>  (98) 
2

>  <heavy_atoms>  (98) 
14

>  <rings>  (98) 
2

>  <pIC50_median>  (98) 
5.96

>  <n_measurements>  (98) 
1.0

>  <murcko_scaffold>  (98) 
c1ccc(C2CCCCC2)cc1

>  <scaffold_id>  (98) 
S004

>  <cluster_id>  (98) 
C012

$$$$
DPC0099
     RDKit          2D

  9  9  0  0  0  0  0  0  0  0999 V2000
    3.7500   -1.2990    0.0000 C   0  0  0  0  0  0  0  0  0  0  0  0
    3.0000    0.0000    0.0000 C   0  0  0  0  0  0  0  0  0  0  0  0
    1.5000    0.0000    0.0000 C   0  0  0  0  0  0  0  0  0  0  0  0
    0.7500   -1.2990    0.0000 C   0  0  0  0  0  0  0  0  0  0  0  0
   -0.7500   -1.2990    0.0000 C   0  0  0  0  0  0  0  0  0  0  0  0
   -1.5000    0.0000    0.0000 C   0  0  0  0  0  0  0  0  0  0  0  0
   -3.0000    0.0000    0.0000 O   0  0  0  0  0  0  0  0  0  0  0  0
   -0.7500    1.2990    0.0000 C   0  0  0  0  0  0  0  0  0  0  0  0
    0.7500    1.2990    0.0000 C   0  0  0  0  0  0  0  0  0  0  0  0
  1  2  1  0
  2  3  1  0
  3  4  1  0
  4  5  2  0
  5  6  1  0
  6  7  1  0
  6  8  2  0
  8  9  1  0
  9  3  2  0
M  END
>  <compound_id>  (99) 
DPC0099

>  <smiles>  (99) 
CCc1ccc(O)cc1

>  <patent_id>  (99) 
DEMO-102-A1

>  <assignee>  (99) 
Helixbridge Pharma

>  <publication_date>  (99) 
2022-10-06

>  <year>  (99) 
2022

>  <series>  (99) 
phenyl

>  <assay_id>  (99) 
ASSAY-02-04

>  <standard_relation>  (99) 
=

>  <pIC50>  (99) 
5.66

>  <project_note>  (99) 
primary measurement

>  <source_row>  (99) 
99

>  <status>  (99) 
accepted

>  <duplicate_group_size>  (99) 
1

>  <source_rows>  (99) 
99

>  <patent_ids>  (99) 
DEMO-102-A1

>  <assignees>  (99) 
Helixbridge Pharma

>  <molecular_weight>  (99) 
122.167

>  <clogp>  (99) 
1.955

>  <tpsa>  (99) 
20.23

>  <hbd>  (99) 
1

>  <hba>  (99) 
1

>  <rotatable_bonds>  (99) 
1

>  <heavy_atoms>  (99) 
9

>  <rings>  (99) 
1

>  <pIC50_median>  (99) 
5.66

>  <n_measurements>  (99) 
1.0

>  <murcko_scaffold>  (99) 
c1ccccc1

>  <scaffold_id>  (99) 
S001

>  <cluster_id>  (99) 
C005

$$$$
DPC0100
     RDKit          2D

 11 11  0  0  0  0  0  0  0  0999 V2000
    3.7500   -1.2990    0.0000 C   0  0  0  0  0  0  0  0  0  0  0  0
    3.0000    0.0000    0.0000 C   0  0  0  0  0  0  0  0  0  0  0  0
    1.5000    0.0000    0.0000 C   0  0  0  0  0  0  0  0  0  0  0  0
    0.7500   -1.2990    0.0000 C   0  0  0  0  0  0  0  0  0  0  0  0
   -0.7500   -1.2990    0.0000 C   0  0  0  0  0  0  0  0  0  0  0  0
   -1.5000    0.0000    0.0000 C   0  0  0  0  0  0  0  0  0  0  0  0
   -3.0000    0.0000    0.0000 C   0  0  0  0  0  0  0  0  0  0  0  0
   -3.7500   -1.2990    0.0000 O   0  0  0  0  0  0  0  0  0  0  0  0
   -3.7500    1.2990    0.0000 O   0  0  0  0  0  0  0  0  0  0  0  0
   -0.7500    1.2990    0.0000 C   0  0  0  0  0  0  0  0  0  0  0  0
    0.7500    1.2990    0.0000 C   0  0  0  0  0  0  0  0  0  0  0  0
  1  2  1  0
  2  3  1  0
  3  4  1  0
  4  5  2  0
  5  6  1  0
  6  7  1  0
  7  8  2  0
  7  9  1  0
  6 10  2  0
 10 11  1  0
 11  3  2  0
M  END
>  <compound_id>  (100) 
DPC0100

>  <smiles>  (100) 
CCc1ccc(C(=O)O)cc1

>  <patent_id>  (100) 
DEMO-102-A1

>  <assignee>  (100) 
Helixbridge Pharma

>  <publication_date>  (100) 
2022-10-06

>  <year>  (100) 
2022

>  <series>  (100) 
phenyl

>  <assay_id>  (100) 
ASSAY-02-05

>  <standard_relation>  (100) 
=

>  <pIC50>  (100) 
5.61

>  <project_note>  (100) 
primary measurement

>  <source_row>  (100) 
100

>  <status>  (100) 
accepted

>  <duplicate_group_size>  (100) 
1

>  <source_rows>  (100) 
100

>  <patent_ids>  (100) 
DEMO-102-A1

>  <assignees>  (100) 
Helixbridge Pharma

>  <molecular_weight>  (100) 
150.177

>  <clogp>  (100) 
1.947

>  <tpsa>  (100) 
37.3

>  <hbd>  (100) 
1

>  <hba>  (100) 
1

>  <rotatable_bonds>  (100) 
2

>  <heavy_atoms>  (100) 
11

>  <rings>  (100) 
1

>  <pIC50_median>  (100) 
5.61

>  <n_measurements>  (100) 
1.0

>  <murcko_scaffold>  (100) 
c1ccccc1

>  <scaffold_id>  (100) 
S001

>  <cluster_id>  (100) 
C005

$$$$
DPC0101
     RDKit          2D

 12 12  0  0  0  0  0  0  0  0999 V2000
    5.2500   -1.2990    0.0000 C   0  0  0  0  0  0  0  0  0  0  0  0
    3.7500   -1.2990    0.0000 C   0  0  0  0  0  0  0  0  0  0  0  0
    3.0000    0.0000    0.0000 C   0  0  0  0  0  0  0  0  0  0  0  0
    1.5000    0.0000    0.0000 C   0  0  0  0  0  0  0  0  0  0  0  0
    0.7500   -1.2990    0.0000 C   0  0  0  0  0  0  0  0  0  0  0  0
   -0.7500   -1.2990    0.0000 C   0  0  0  0  0  0  0  0  0  0  0  0
   -1.5000    0.0000    0.0000 C   0  0  0  0  0  0  0  0  0  0  0  0
   -3.0000    0.0000    0.0000 C   0  0  0  0  0  0  0  0  0  0  0  0
   -3.7500    1.2990    0.0000 C   0  0  0  0  0  0  0  0  0  0  0  0
   -5.2500    1.2990    0.0000 C   0  0  0  0  0  0  0  0  0  0  0  0
   -0.7500    1.2990    0.0000 C   0  0  0  0  0  0  0  0  0  0  0  0
    0.7500    1.2990    0.0000 C   0  0  0  0  0  0  0  0  0  0  0  0
  1  2  1  0
  2  3  1  0
  3  4  1  0
  4  5  1  0
  5  6  2  0
  6  7  1  0
  7  8  1  0
  8  9  1  0
  9 10  1  0
  7 11  2  0
 11 12  1  0
 12  4  2  0
M  END
>  <compound_id>  (101) 
DPC0101

>  <smiles>  (101) 
CCCc1ccc(CCC)cc1

>  <patent_id>  (101) 
DEMO-102-A1

>  <assignee>  (101) 
Helixbridge Pharma

>  <publication_date>  (101) 
2022-10-06

>  <year>  (101) 
2022

>  <series>  (101) 
phenyl

>  <assay_id>  (101) 
ASSAY-02-06

>  <standard_relation>  (101) 
=

>  <pIC50>  (101) 
5.44

>  <project_note>  (101) 
primary measurement

>  <source_row>  (101) 
101

>  <status>  (101) 
accepted

>  <duplicate_group_size>  (101) 
1

>  <source_rows>  (101) 
101

>  <patent_ids>  (101) 
DEMO-102-A1

>  <assignees>  (101) 
Helixbridge Pharma

>  <molecular_weight>  (101) 
162.276

>  <clogp>  (101) 
3.592

>  <tpsa>  (101) 
0.0

>  <hbd>  (101) 
0

>  <hba>  (101) 
0

>  <rotatable_bonds>  (101) 
4

>  <heavy_atoms>  (101) 
12

>  <rings>  (101) 
1

>  <pIC50_median>  (101) 
5.44

>  <n_measurements>  (101) 
1.0

>  <murcko_scaffold>  (101) 
c1ccccc1

>  <scaffold_id>  (101) 
S001

>  <cluster_id>  (101) 
C002

$$$$
DPC0102
     RDKit          2D

 11 11  0  0  0  0  0  0  0  0999 V2000
    5.2500   -1.2990    0.0000 C   0  0  0  0  0  0  0  0  0  0  0  0
    3.7500   -1.2990    0.0000 C   0  0  0  0  0  0  0  0  0  0  0  0
    3.0000    0.0000    0.0000 C   0  0  0  0  0  0  0  0  0  0  0  0
    1.5000    0.0000    0.0000 C   0  0  0  0  0  0  0  0  0  0  0  0
    0.7500   -1.2990    0.0000 C   0  0  0  0  0  0  0  0  0  0  0  0
   -0.7500   -1.2990    0.0000 C   0  0  0  0  0  0  0  0  0  0  0  0
   -1.5000    0.0000    0.0000 C   0  0  0  0  0  0  0  0  0  0  0  0
   -3.0000    0.0000    0.0000 O   0  0  0  0  0  0  0  0  0  0  0  0
   -3.7500    1.2990    0.0000 C   0  0  0  0  0  0  0  0  0  0  0  0
   -0.7500    1.2990    0.0000 C   0  0  0  0  0  0  0  0  0  0  0  0
    0.7500    1.2990    0.0000 C   0  0  0  0  0  0  0  0  0  0  0  0
  1  2  1  0
  2  3  1  0
  3  4  1  0
  4  5  1  0
  5  6  2  0
  6  7  1  0
  7  8  1  0
  8  9  1  0
  7 10  2  0
 10 11  1  0
 11  4  2  0
M  END
>  <compound_id>  (102) 
DPC0102

>  <smiles>  (102) 
CCCc1ccc(OC)cc1

>  <patent_id>  (102) 
DEMO-102-A1

>  <assignee>  (102) 
Helixbridge Pharma

>  <publication_date>  (102) 
2022-10-06

>  <year>  (102) 
2022

>  <series>  (102) 
phenyl

>  <assay_id>  (102) 
ASSAY-02-07

>  <standard_relation>  (102) 
=

>  <pIC50>  (102) 
5.62

>  <project_note>  (102) 
primary measurement

>  <source_row>  (102) 
102

>  <status>  (102) 
accepted

>  <duplicate_group_size>  (102) 
1

>  <source_rows>  (102) 
102

>  <patent_ids>  (102) 
DEMO-102-A1

>  <assignees>  (102) 
Helixbridge Pharma

>  <molecular_weight>  (102) 
150.221

>  <clogp>  (102) 
2.648

>  <tpsa>  (102) 
9.23

>  <hbd>  (102) 
0

>  <hba>  (102) 
1

>  <rotatable_bonds>  (102) 
3

>  <heavy_atoms>  (102) 
11

>  <rings>  (102) 
1

>  <pIC50_median>  (102) 
5.62

>  <n_measurements>  (102) 
1.0

>  <murcko_scaffold>  (102) 
c1ccccc1

>  <scaffold_id>  (102) 
S001

>  <cluster_id>  (102) 
C002

$$$$
DPC0103
     RDKit          2D

 12 12  0  0  0  0  0  0  0  0999 V2000
    5.2500   -1.2990    0.0000 C   0  0  0  0  0  0  0  0  0  0  0  0
    3.7500   -1.2990    0.0000 C   0  0  0  0  0  0  0  0  0  0  0  0
    3.0000    0.0000    0.0000 C   0  0  0  0  0  0  0  0  0  0  0  0
    1.5000    0.0000    0.0000 C   0  0  0  0  0  0  0  0  0  0  0  0
    0.7500   -1.2990    0.0000 C   0  0  0  0  0  0  0  0  0  0  0  0
   -0.7500   -1.2990    0.0000 C   0  0  0  0  0  0  0  0  0  0  0  0
   -1.5000    0.0000    0.0000 C   0  0  0  0  0  0  0  0  0  0  0  0
   -3.0000    0.0000    0.0000 O   0  0  0  0  0  0  0  0  0  0  0  0
   -3.7500    1.2990    0.0000 C   0  0  0  0  0  0  0  0  0  0  0  0
   -5.2500    1.2990    0.0000 C   0  0  0  0  0  0  0  0  0  0  0  0
   -0.7500    1.2990    0.0000 C   0  0  0  0  0  0  0  0  0  0  0  0
    0.7500    1.2990    0.0000 C   0  0  0  0  0  0  0  0  0  0  0  0
  1  2  1  0
  2  3  1  0
  3  4  1  0
  4  5  1  0
  5  6  2  0
  6  7  1  0
  7  8  1  0
  8  9  1  0
  9 10  1  0
  7 11  2  0
 11 12  1  0
 12  4  2  0
M  END
>  <compound_id>  (103) 
DPC0103

>  <smiles>  (103) 
CCCc1ccc(OCC)cc1

>  <patent_id>  (103) 
DEMO-102-A1

>  <assignee>  (103) 
Helixbridge Pharma

>  <publication_date>  (103) 
2022-10-06

>  <year>  (103) 
2022

>  <series>  (103) 
phenyl

>  <assay_id>  (103) 
ASSAY-02-08

>  <standard_relation>  (103) 
=

>  <pIC50>  (103) 
5.81

>  <project_note>  (103) 
primary measurement

>  <source_row>  (103) 
103

>  <status>  (103) 
accepted

>  <duplicate_group_size>  (103) 
1

>  <source_rows>  (103) 
103

>  <patent_ids>  (103) 
DEMO-102-A1

>  <assignees>  (103) 
Helixbridge Pharma

>  <molecular_weight>  (103) 
164.248

>  <clogp>  (103) 
3.038

>  <tpsa>  (103) 
9.23

>  <hbd>  (103) 
0

>  <hba>  (103) 
1

>  <rotatable_bonds>  (103) 
4

>  <heavy_atoms>  (103) 
12

>  <rings>  (103) 
1

>  <pIC50_median>  (103) 
5.81

>  <n_measurements>  (103) 
1.0

>  <murcko_scaffold>  (103) 
c1ccccc1

>  <scaffold_id>  (103) 
S001

>  <cluster_id>  (103) 
C001

$$$$
DPC0104
     RDKit          2D

 10 10  0  0  0  0  0  0  0  0999 V2000
    5.2500   -1.2990    0.0000 C   0  0  0  0  0  0  0  0  0  0  0  0
    3.7500   -1.2990    0.0000 C   0  0  0  0  0  0  0  0  0  0  0  0
    3.0000    0.0000    0.0000 C   0  0  0  0  0  0  0  0  0  0  0  0
    1.5000    0.0000    0.0000 C   0  0  0  0  0  0  0  0  0  0  0  0
    0.7500   -1.2990    0.0000 C   0  0  0  0  0  0  0  0  0  0  0  0
   -0.7500   -1.2990    0.0000 C   0  0  0  0  0  0  0  0  0  0  0  0
   -1.5000    0.0000    0.0000 C   0  0  0  0  0  0  0  0  0  0  0  0
   -3.0000    0.0000    0.0000 N   0  0  0  0  0  0  0  0  0  0  0  0
   -0.7500    1.2990    0.0000 C   0  0  0  0  0  0  0  0  0  0  0  0
    0.7500    1.2990    0.0000 C   0  0  0  0  0  0  0  0  0  0  0  0
  1  2  1  0
  2  3  1  0
  3  4  1  0
  4  5  1  0
  5  6  2  0
  6  7  1  0
  7  8  1  0
  7  9  2  0
  9 10  1  0
 10  4  2  0
M  END
>  <compound_id>  (104) 
DPC0104

>  <smiles>  (104) 
CCCc1ccc(N)cc1

>  <patent_id>  (104) 
DEMO-102-A1

>  <assignee>  (104) 
Helixbridge Pharma

>  <publication_date>  (104) 
2022-10-06

>  <year>  (104) 
2022

>  <series>  (104) 
phenyl

>  <assay_id>  (104) 
ASSAY-02-09

>  <standard_relation>  (104) 
=

>  <pIC50>  (104) 
5.85

>  <project_note>  (104) 
primary measurement

>  <source_row>  (104) 
104

>  <status>  (104) 
accepted

>  <duplicate_group_size>  (104) 
1

>  <source_rows>  (104) 
104

>  <patent_ids>  (104) 
DEMO-102-A1

>  <assignees>  (104) 
Helixbridge Pharma

>  <molecular_weight>  (104) 
135.21

>  <clogp>  (104) 
2.221

>  <tpsa>  (104) 
26.02

>  <hbd>  (104) 
1

>  <hba>  (104) 
1

>  <rotatable_bonds>  (104) 
2

>  <heavy_atoms>  (104) 
10

>  <rings>  (104) 
1

>  <pIC50_median>  (104) 
5.85

>  <n_measurements>  (104) 
1.0

>  <murcko_scaffold>  (104) 
c1ccccc1

>  <scaffold_id>  (104) 
S001

>  <cluster_id>  (104) 
C002

$$$$
DPC0105
     RDKit          2D

 11 11  0  0  0  0  0  0  0  0999 V2000
    5.2500   -1.2990    0.0000 C   0  0  0  0  0  0  0  0  0  0  0  0
    3.7500   -1.2990    0.0000 C   0  0  0  0  0  0  0  0  0  0  0  0
    3.0000    0.0000    0.0000 C   0  0  0  0  0  0  0  0  0  0  0  0
    1.5000    0.0000    0.0000 C   0  0  0  0  0  0  0  0  0  0  0  0
    0.7500   -1.2990    0.0000 C   0  0  0  0  0  0  0  0  0  0  0  0
   -0.7500   -1.2990    0.0000 C   0  0  0  0  0  0  0  0  0  0  0  0
   -1.5000    0.0000    0.0000 C   0  0  0  0  0  0  0  0  0  0  0  0
   -3.0000    0.0000    0.0000 N   0  0  0  0  0  0  0  0  0  0  0  0
   -3.7500    1.2990    0.0000 C   0  0  0  0  0  0  0  0  0  0  0  0
   -0.7500    1.2990    0.0000 C   0  0  0  0  0  0  0  0  0  0  0  0
    0.7500    1.2990    0.0000 C   0  0  0  0  0  0  0  0  0  0  0  0
  1  2  1  0
  2  3  1  0
  3  4  1  0
  4  5  1  0
  5  6  2  0
  6  7  1  0
  7  8  1  0
  8  9  1  0
  7 10  2  0
 10 11  1  0
 11  4  2  0
M  END
>  <compound_id>  (105) 
DPC0105

>  <smiles>  (105) 
CCCc1ccc(NC)cc1

>  <patent_id>  (105) 
DEMO-102-A1

>  <assignee>  (105) 
Helixbridge Pharma

>  <publication_date>  (105) 
2022-10-06

>  <year>  (105) 
2022

>  <series>  (105) 
phenyl

>  <assay_id>  (105) 
ASSAY-02-10

>  <standard_relation>  (105) 
=

>  <pIC50>  (105) 
6.03

>  <project_note>  (105) 
primary measurement

>  <source_row>  (105) 
105

>  <status>  (105) 
accepted

>  <duplicate_group_size>  (105) 
1

>  <source_rows>  (105) 
105

>  <patent_ids>  (105) 
DEMO-102-A1

>  <assignees>  (105) 
Helixbridge Pharma

>  <molecular_weight>  (105) 
149.237

>  <clogp>  (105) 
2.681

>  <tpsa>  (105) 
12.03

>  <hbd>  (105) 
1

>  <hba>  (105) 
1

>  <rotatable_bonds>  (105) 
3

>  <heavy_atoms>  (105) 
11

>  <rings>  (105) 
1

>  <pIC50_median>  (105) 
6.03

>  <n_measurements>  (105) 
1.0

>  <murcko_scaffold>  (105) 
c1ccccc1

>  <scaffold_id>  (105) 
S001

>  <cluster_id>  (105) 
C002

$$$$
DPC0106
     RDKit          2D

 12 12  0  0  0  0  0  0  0  0999 V2000
    5.2500   -1.2990    0.0000 C   0  0  0  0  0  0  0  0  0  0  0  0
    3.7500   -1.2990    0.0000 C   0  0  0  0  0  0  0  0  0  0  0  0
    3.0000    0.0000    0.0000 C   0  0  0  0  0  0  0  0  0  0  0  0
    1.5000    0.0000    0.0000 C   0  0  0  0  0  0  0  0  0  0  0  0
    0.7500   -1.2990    0.0000 C   0  0  0  0  0  0  0  0  0  0  0  0
   -0.7500   -1.2990    0.0000 C   0  0  0  0  0  0  0  0  0  0  0  0
   -1.5000    0.0000    0.0000 C   0  0  0  0  0  0  0  0  0  0  0  0
   -3.0000    0.0000    0.0000 N   0  0  0  0  0  0  0  0  0  0  0  0
   -3.7500    1.2990    0.0000 C   0  0  0  0  0  0  0  0  0  0  0  0
   -3.7500   -1.2990    0.0000 C   0  0  0  0  0  0  0  0  0  0  0  0
   -0.7500    1.2990    0.0000 C   0  0  0  0  0  0  0  0  0  0  0  0
    0.7500    1.2990    0.0000 C   0  0  0  0  0  0  0  0  0  0  0  0
  1  2  1  0
  2  3  1  0
  3  4  1  0
  4  5  1  0
  5  6  2  0
  6  7  1  0
  7  8  1  0
  8  9  1  0
  8 10  1  0
  7 11  2  0
 11 12  1  0
 12  4  2  0
M  END
>  <compound_id>  (106) 
DPC0106

>  <smiles>  (106) 
CCCc1ccc(N(C)C)cc1

>  <patent_id>  (106) 
DEMO-102-A1

>  <assignee>  (106) 
Helixbridge Pharma

>  <publication_date>  (106) 
2022-10-06

>  <year>  (106) 
2022

>  <series>  (106) 
phenyl

>  <assay_id>  (106) 
ASSAY-02-11

>  <standard_relation>  (106) 
=

>  <pIC50>  (106) 
6.12

>  <project_note>  (106) 
primary measurement

>  <source_row>  (106) 
106

>  <status>  (106) 
accepted

>  <duplicate_group_size>  (106) 
1

>  <source_rows>  (106) 
106

>  <patent_ids>  (106) 
DEMO-102-A1

>  <assignees>  (106) 
Helixbridge Pharma

>  <molecular_weight>  (106) 
163.264

>  <clogp>  (106) 
2.705

>  <tpsa>  (106) 
3.24

>  <hbd>  (106) 
0

>  <hba>  (106) 
1

>  <rotatable_bonds>  (106) 
3

>  <heavy_atoms>  (106) 
12

>  <rings>  (106) 
1

>  <pIC50_median>  (106) 
6.12

>  <n_measurements>  (106) 
1.0

>  <murcko_scaffold>  (106) 
c1ccccc1

>  <scaffold_id>  (106) 
S001

>  <cluster_id>  (106) 
C002

$$$$
DPC0107
     RDKit          2D

 11 11  0  0  0  0  0  0  0  0999 V2000
    5.2500   -1.2990    0.0000 C   0  0  0  0  0  0  0  0  0  0  0  0
    3.7500   -1.2990    0.0000 C   0  0  0  0  0  0  0  0  0  0  0  0
    3.0000    0.0000    0.0000 C   0  0  0  0  0  0  0  0  0  0  0  0
    1.5000    0.0000    0.0000 C   0  0  0  0  0  0  0  0  0  0  0  0
    0.7500   -1.2990    0.0000 C   0  0  0  0  0  0  0  0  0  0  0  0
   -0.7500   -1.2990    0.0000 C   0  0  0  0  0  0  0  0  0  0  0  0
   -1.5000    0.0000    0.0000 C   0  0  0  0  0  0  0  0  0  0  0  0
   -3.0000    0.0000    0.0000 C   0  0  0  0  0  0  0  0  0  0  0  0
   -4.5000    0.0000    0.0000 N   0  0  0  0  0  0  0  0  0  0  0  0
   -0.7500    1.2990    0.0000 C   0  0  0  0  0  0  0  0  0  0  0  0
    0.7500    1.2990    0.0000 C   0  0  0  0  0  0  0  0  0  0  0  0
  1  2  1  0
  2  3  1  0
  3  4  1  0
  4  5  1  0
  5  6  2  0
  6  7  1  0
  7  8  1  0
  8  9  3  0
  7 10  2  0
 10 11  1  0
 11  4  2  0
M  END
>  <compound_id>  (107) 
DPC0107

>  <smiles>  (107) 
CCCc1ccc(C#N)cc1

>  <patent_id>  (107) 
DEMO-102-A1

>  <assignee>  (107) 
Helixbridge Pharma

>  <publication_date>  (107) 
2022-10-06

>  <year>  (107) 
2022

>  <series>  (107) 
phenyl

>  <assay_id>  (107) 
ASSAY-02-12

>  <standard_relation>  (107) 
=

>  <pIC50>  (107) 
6.12

>  <project_note>  (107) 
primary measurement

>  <source_row>  (107) 
107

>  <status>  (107) 
accepted

>  <duplicate_group_size>  (107) 
1

>  <source_rows>  (107) 
107

>  <patent_ids>  (107) 
DEMO-102-A1

>  <assignees>  (107) 
Helixbridge Pharma

>  <molecular_weight>  (107) 
145.205

>  <clogp>  (107) 
2.511

>  <tpsa>  (107) 
23.79

>  <hbd>  (107) 
0

>  <hba>  (107) 
1

>  <rotatable_bonds>  (107) 
2

>  <heavy_atoms>  (107) 
11

>  <rings>  (107) 
1

>  <pIC50_median>  (107) 
6.12

>  <n_measurements>  (107) 
1.0

>  <murcko_scaffold>  (107) 
c1ccccc1

>  <scaffold_id>  (107) 
S001

>  <cluster_id>  (107) 
C002

$$$$
DPC0108
     RDKit          2D

 13 13  0  0  0  0  0  0  0  0999 V2000
    5.2500   -1.2990    0.0000 C   0  0  0  0  0  0  0  0  0  0  0  0
    3.7500   -1.2990    0.0000 C   0  0  0  0  0  0  0  0  0  0  0  0
    3.0000    0.0000    0.0000 C   0  0  0  0  0  0  0  0  0  0  0  0
    1.5000    0.0000    0.0000 C   0  0  0  0  0  0  0  0  0  0  0  0
    0.7500   -1.2990    0.0000 C   0  0  0  0  0  0  0  0  0  0  0  0
   -0.7500   -1.2990    0.0000 C   0  0  0  0  0  0  0  0  0  0  0  0
   -1.5000    0.0000    0.0000 C   0  0  0  0  0  0  0  0  0  0  0  0
   -3.0000    0.0000    0.0000 C   0  0  0  0  0  0  0  0  0  0  0  0
   -4.5000    0.0000    0.0000 F   0  0  0  0  0  0  0  0  0  0  0  0
   -3.0000    1.5000    0.0000 F   0  0  0  0  0  0  0  0  0  0  0  0
   -3.0000   -1.5000    0.0000 F   0  0  0  0  0  0  0  0  0  0  0  0
   -0.7500    1.2990    0.0000 C   0  0  0  0  0  0  0  0  0  0  0  0
    0.7500    1.2990    0.0000 C   0  0  0  0  0  0  0  0  0  0  0  0
  1  2  1  0
  2  3  1  0
  3  4  1  0
  4  5  1  0
  5  6  2  0
  6  7  1  0
  7  8  1  0
  8  9  1  0
  8 10  1  0
  8 11  1  0
  7 12  2  0
 12 13  1  0
 13  4  2  0
M  END
>  <compound_id>  (108) 
DPC0108

>  <smiles>  (108) 
CCCc1ccc(C(F)(F)F)cc1

>  <patent_id>  (108) 
DEMO-102-A1

>  <assignee>  (108) 
Helixbridge Pharma

>  <publication_date>  (108) 
2022-10-06

>  <year>  (108) 
2022

>  <series>  (108) 
phenyl

>  <assay_id>  (108) 
ASSAY-02-01

>  <standard_relation>  (108) 
=

>  <pIC50>  (108) 
5.95

>  <project_note>  (108) 
primary measurement

>  <source_row>  (108) 
108

>  <status>  (108) 
accepted

>  <duplicate_group_size>  (108) 
1

>  <source_rows>  (108) 
108

>  <patent_ids>  (108) 
DEMO-102-A1

>  <assignees>  (108) 
Helixbridge Pharma

>  <molecular_weight>  (108) 
188.192

>  <clogp>  (108) 
3.658

>  <tpsa>  (108) 
0.0

>  <hbd>  (108) 
0

>  <hba>  (108) 
0

>  <rotatable_bonds>  (108) 
2

>  <heavy_atoms>  (108) 
13

>  <rings>  (108) 
1

>  <pIC50_median>  (108) 
5.95

>  <n_measurements>  (108) 
1.0

>  <murcko_scaffold>  (108) 
c1ccccc1

>  <scaffold_id>  (108) 
S001

>  <cluster_id>  (108) 
C002

$$$$
DPC0109
     RDKit          2D

 12 12  0  0  0  0  0  0  0  0999 V2000
    5.2500   -1.2990    0.0000 C   0  0  0  0  0  0  0  0  0  0  0  0
    3.7500   -1.2990    0.0000 C   0  0  0  0  0  0  0  0  0  0  0  0
    3.0000    0.0000    0.0000 C   0  0  0  0  0  0  0  0  0  0  0  0
    1.5000    0.0000    0.0000 C   0  0  0  0  0  0  0  0  0  0  0  0
    0.7500   -1.2990    0.0000 C   0  0  0  0  0  0  0  0  0  0  0  0
   -0.7500   -1.2990    0.0000 C   0  0  0  0  0  0  0  0  0  0  0  0
   -1.5000    0.0000    0.0000 C   0  0  0  0  0  0  0  0  0  0  0  0
   -3.0000    0.0000    0.0000 C   0  0  0  0  0  0  0  0  0  0  0  0
   -3.7500    1.2990    0.0000 N   0  0  0  0  0  0  0  0  0  0  0  0
   -3.7500   -1.2990    0.0000 O   0  0  0  0  0  0  0  0  0  0  0  0
   -0.7500    1.2990    0.0000 C   0  0  0  0  0  0  0  0  0  0  0  0
    0.7500    1.2990    0.0000 C   0  0  0  0  0  0  0  0  0  0  0  0
  1  2  1  0
  2  3  1  0
  3  4  1  0
  4  5  1  0
  5  6  2  0
  6  7  1  0
  7  8  1  0
  8  9  1  0
  8 10  2  0
  7 11  2  0
 11 12  1  0
 12  4  2  0
M  END
>  <compound_id>  (109) 
DPC0109

>  <smiles>  (109) 
CCCc1ccc(C(N)=O)cc1

>  <patent_id>  (109) 
DEMO-103-A1

>  <assignee>  (109) 
Kestrel BioDiscovery

>  <publication_date>  (109) 
2023-07-13

>  <year>  (109) 
2023

>  <series>  (109) 
phenyl

>  <assay_id>  (109) 
ASSAY-03-02

>  <standard_relation>  (109) 
=

>  <pIC50>  (109) 
5.94

>  <project_note>  (109) 
primary measurement

>  <source_row>  (109) 
109

>  <status>  (109) 
accepted

>  <duplicate_group_size>  (109) 
2

>  <source_rows>  (109) 
109 | 223

>  <patent_ids>  (109) 
DEMO-102-A1 | DEMO-103-A1

>  <assignees>  (109) 
Helixbridge Pharma | Kestrel BioDiscovery

>  <molecular_weight>  (109) 
163.22

>  <clogp>  (109) 
1.738

>  <tpsa>  (109) 
43.09

>  <hbd>  (109) 
1

>  <hba>  (109) 
1

>  <rotatable_bonds>  (109) 
3

>  <heavy_atoms>  (109) 
12

>  <rings>  (109) 
1

>  <pIC50_median>  (109) 
5.82

>  <n_measurements>  (109) 
2.0

>  <murcko_scaffold>  (109) 
c1ccccc1

>  <scaffold_id>  (109) 
S001

>  <cluster_id>  (109) 
C002

$$$$
DPC0110
     RDKit          2D

 13 13  0  0  0  0  0  0  0  0999 V2000
    5.2500   -1.2990    0.0000 C   0  0  0  0  0  0  0  0  0  0  0  0
    3.7500   -1.2990    0.0000 C   0  0  0  0  0  0  0  0  0  0  0  0
    3.0000    0.0000    0.0000 C   0  0  0  0  0  0  0  0  0  0  0  0
    1.5000    0.0000    0.0000 C   0  0  0  0  0  0  0  0  0  0  0  0
    0.7500   -1.2990    0.0000 C   0  0  0  0  0  0  0  0  0  0  0  0
   -0.7500   -1.2990    0.0000 C   0  0  0  0  0  0  0  0  0  0  0  0
   -1.5000    0.0000    0.0000 C   0  0  0  0  0  0  0  0  0  0  0  0
   -3.0000    0.0000    0.0000 C   0  0  0  0  0  0  0  0  0  0  0  0
   -3.7500   -1.2990    0.0000 O   0  0  0  0  0  0  0  0  0  0  0  0
   -3.7500    1.2990    0.0000 N   0  0  0  0  0  0  0  0  0  0  0  0
   -5.2500    1.2990    0.0000 C   0  0  0  0  0  0  0  0  0  0  0  0
   -0.7500    1.2990    0.0000 C   0  0  0  0  0  0  0  0  0  0  0  0
    0.7500    1.2990    0.0000 C   0  0  0  0  0  0  0  0  0  0  0  0
  1  2  1  0
  2  3  1  0
  3  4  1  0
  4  5  1  0
  5  6  2  0
  6  7  1  0
  7  8  1  0
  8  9  2  0
  8 10  1  0
 10 11  1  0
  7 12  2  0
 12 13  1  0
 13  4  2  0
M  END
>  <compound_id>  (110) 
DPC0110

>  <smiles>  (110) 
CCCc1ccc(C(=O)NC)cc1

>  <patent_id>  (110) 
DEMO-103-A1

>  <assignee>  (110) 
Kestrel BioDiscovery

>  <publication_date>  (110) 
2023-07-13

>  <year>  (110) 
2023

>  <series>  (110) 
phenyl

>  <assay_id>  (110) 
ASSAY-03-03

>  <standard_relation>  (110) 
=

>  <pIC50>  (110) 
5.98

>  <project_note>  (110) 
primary measurement

>  <source_row>  (110) 
110

>  <status>  (110) 
accepted

>  <duplicate_group_size>  (110) 
2

>  <source_rows>  (110) 
110 | 224

>  <patent_ids>  (110) 
DEMO-102-A1 | DEMO-103-A1

>  <assignees>  (110) 
Helixbridge Pharma | Kestrel BioDiscovery

>  <molecular_weight>  (110) 
177.247

>  <clogp>  (110) 
1.999

>  <tpsa>  (110) 
29.1

>  <hbd>  (110) 
1

>  <hba>  (110) 
1

>  <rotatable_bonds>  (110) 
3

>  <heavy_atoms>  (110) 
13

>  <rings>  (110) 
1

>  <pIC50_median>  (110) 
5.93

>  <n_measurements>  (110) 
2.0

>  <murcko_scaffold>  (110) 
c1ccccc1

>  <scaffold_id>  (110) 
S001

>  <cluster_id>  (110) 
C022

$$$$
DPC0111
     RDKit          2D

 13 13  0  0  0  0  0  0  0  0999 V2000
    5.2500   -1.2990    0.0000 C   0  0  0  0  0  0  0  0  0  0  0  0
    3.7500   -1.2990    0.0000 C   0  0  0  0  0  0  0  0  0  0  0  0
    3.0000    0.0000    0.0000 C   0  0  0  0  0  0  0  0  0  0  0  0
    1.5000    0.0000    0.0000 C   0  0  0  0  0  0  0  0  0  0  0  0
    0.7500   -1.2990    0.0000 C   0  0  0  0  0  0  0  0  0  0  0  0
   -0.7500   -1.2990    0.0000 C   0  0  0  0  0  0  0  0  0  0  0  0
   -1.5000    0.0000    0.0000 C   0  0  0  0  0  0  0  0  0  0  0  0
   -3.0000    0.0000    0.0000 S   0  0  0  0  0  0  0  0  0  0  0  0
   -4.5000    0.0000    0.0000 N   0  0  0  0  0  0  0  0  0  0  0  0
   -3.0000    1.5000    0.0000 O   0  0  0  0  0  0  0  0  0  0  0  0
   -3.0000   -1.5000    0.0000 O   0  0  0  0  0  0  0  0  0  0  0  0
   -0.7500    1.2990    0.0000 C   0  0  0  0  0  0  0  0  0  0  0  0
    0.7500    1.2990    0.0000 C   0  0  0  0  0  0  0  0  0  0  0  0
  1  2  1  0
  2  3  1  0
  3  4  1  0
  4  5  1  0
  5  6  2  0
  6  7  1  0
  7  8  1  0
  8  9  1  0
  8 10  2  0
  8 11  2  0
  7 12  2  0
 12 13  1  0
 13  4  2  0
M  END
>  <compound_id>  (111) 
DPC0111

>  <smiles>  (111) 
CCCc1ccc(S(N)(=O)=O)cc1

>  <patent_id>  (111) 
DEMO-103-A1

>  <assignee>  (111) 
Kestrel BioDiscovery

>  <publication_date>  (111) 
2023-07-13

>  <year>  (111) 
2023

>  <series>  (111) 
phenyl

>  <assay_id>  (111) 
ASSAY-03-04

>  <standard_relation>  (111) 
>

>  <pIC50>  (111) 
5.92

>  <project_note>  (111) 
primary measurement

>  <source_row>  (111) 
111

>  <status>  (111) 
accepted

>  <duplicate_group_size>  (111) 
2

>  <source_rows>  (111) 
111 | 225

>  <patent_ids>  (111) 
DEMO-102-A1 | DEMO-103-A1

>  <assignees>  (111) 
Helixbridge Pharma | Kestrel BioDiscovery

>  <molecular_weight>  (111) 
199.275

>  <clogp>  (111) 
1.287

>  <tpsa>  (111) 
60.16

>  <hbd>  (111) 
1

>  <hba>  (111) 
2

>  <rotatable_bonds>  (111) 
3

>  <heavy_atoms>  (111) 
13

>  <rings>  (111) 
1

>  <pIC50_median>  (111) 
5.89

>  <n_measurements>  (111) 
1.0

>  <murcko_scaffold>  (111) 
c1ccccc1

>  <scaffold_id>  (111) 
S001

>  <cluster_id>  (111) 
C002

$$$$
DPC0112
     RDKit          2D

 14 14  0  0  0  0  0  0  0  0999 V2000
    5.2500   -1.2990    0.0000 C   0  0  0  0  0  0  0  0  0  0  0  0
    3.7500   -1.2990    0.0000 C   0  0  0  0  0  0  0  0  0  0  0  0
    3.0000    0.0000    0.0000 C   0  0  0  0  0  0  0  0  0  0  0  0
    1.5000    0.0000    0.0000 C   0  0  0  0  0  0  0  0  0  0  0  0
    0.7500   -1.2990    0.0000 C   0  0  0  0  0  0  0  0  0  0  0  0
   -0.7500   -1.2990    0.0000 C   0  0  0  0  0  0  0  0  0  0  0  0
   -1.5000    0.0000    0.0000 C   0  0  0  0  0  0  0  0  0  0  0  0
   -3.0000    0.0000    0.0000 O   0  0  0  0  0  0  0  0  0  0  0  0
   -3.7500    1.2990    0.0000 C   0  0  0  0  0  0  0  0  0  0  0  0
   -4.5000    2.5981    0.0000 F   0  0  0  0  0  0  0  0  0  0  0  0
   -5.0490    0.5490    0.0000 F   0  0  0  0  0  0  0  0  0  0  0  0
   -2.4510    2.0490    0.0000 F   0  0  0  0  0  0  0  0  0  0  0  0
   -0.7500    1.2990    0.0000 C   0  0  0  0  0  0  0  0  0  0  0  0
    0.7500    1.2990    0.0000 C   0  0  0  0  0  0  0  0  0  0  0  0
  1  2  1  0
  2  3  1  0
  3  4  1  0
  4  5  1  0
  5  6  2  0
  6  7  1  0
  7  8  1  0
  8  9  1  0
  9 10  1  0
  9 11  1  0
  9 12  1  0
  7 13  2  0
 13 14  1  0
 14  4  2  0
M  END
>  <compound_id>  (112) 
DPC0112

>  <smiles>  (112) 
CCCc1ccc(OC(F)(F)F)cc1

>  <patent_id>  (112) 
DEMO-103-A1

>  <assignee>  (112) 
Kestrel BioDiscovery

>  <publication_date>  (112) 
2023-07-13

>  <year>  (112) 
2023

>  <series>  (112) 
phenyl

>  <assay_id>  (112) 
ASSAY-03-05

>  <standard_relation>  (112) 
=

>  <pIC50>  (112) 
6.04

>  <project_note>  (112) 
primary measurement

>  <source_row>  (112) 
112

>  <status>  (112) 
accepted

>  <duplicate_group_size>  (112) 
2

>  <source_rows>  (112) 
112 | 226

>  <patent_ids>  (112) 
DEMO-102-A1 | DEMO-103-A1

>  <assignees>  (112) 
Helixbridge Pharma | Kestrel BioDiscovery

>  <molecular_weight>  (112) 
204.191

>  <clogp>  (112) 
3.538

>  <tpsa>  (112) 
9.23

>  <hbd>  (112) 
0

>  <hba>  (112) 
1

>  <rotatable_bonds>  (112) 
3

>  <heavy_atoms>  (112) 
14

>  <rings>  (112) 
1

>  <pIC50_median>  (112) 
6.0

>  <n_measurements>  (112) 
2.0

>  <murcko_scaffold>  (112) 
c1ccccc1

>  <scaffold_id>  (112) 
S001

>  <cluster_id>  (112) 
C016

$$$$
DPC0113
     RDKit          2D

 15 16  0  0  0  0  0  0  0  0999 V2000
    5.2500   -1.2990    0.0000 C   0  0  0  0  0  0  0  0  0  0  0  0
    3.7500   -1.2990    0.0000 C   0  0  0  0  0  0  0  0  0  0  0  0
    3.0000    0.0000    0.0000 C   0  0  0  0  0  0  0  0  0  0  0  0
    1.5000    0.0000    0.0000 C   0  0  0  0  0  0  0  0  0  0  0  0
    0.7500   -1.2990    0.0000 C   0  0  0  0  0  0  0  0  0  0  0  0
   -0.7500   -1.2990    0.0000 C   0  0  0  0  0  0  0  0  0  0  0  0
   -1.5000    0.0000    0.0000 C   0  0  0  0  0  0  0  0  0  0  0  0
   -3.0000    0.0000    0.0000 N   0  0  0  0  0  0  0  0  0  0  0  0
   -3.7500    1.2990    0.0000 C   0  0  0  0  0  0  0  0  0  0  0  0
   -5.2500    1.2990    0.0000 C   0  0  0  0  0  0  0  0  0  0  0  0
   -6.0000    0.0000    0.0000 O   0  0  0  0  0  0  0  0  0  0  0  0
   -5.2500   -1.2990    0.0000 C   0  0  0  0  0  0  0  0  0  0  0  0
   -3.7500   -1.2990    0.0000 C   0  0  0  0  0  0  0  0  0  0  0  0
   -0.7500    1.2990    0.0000 C   0  0  0  0  0  0  0  0  0  0  0  0
    0.7500    1.2990    0.0000 C   0  0  0  0  0  0  0  0  0  0  0  0
  1  2  1  0
  2  3  1  0
  3  4  1  0
  4  5  1  0
  5  6  2  0
  6  7  1  0
  7  8  1  0
  8  9  1  0
  9 10  1  0
 10 11  1  0
 11 12  1  0
 12 13  1  0
  7 14  2  0
 14 15  1  0
 15  4  2  0
 13  8  1  0
M  END
>  <compound_id>  (113) 
DPC0113

>  <smiles>  (113) 
CCCc1ccc(N2CCOCC2)cc1

>  <patent_id>  (113) 
DEMO-103-A1

>  <assignee>  (113) 
Kestrel BioDiscovery

>  <publication_date>  (113) 
2023-07-13

>  <year>  (113) 
2023

>  <series>  (113) 
phenyl

>  <assay_id>  (113) 
ASSAY-03-06

>  <standard_relation>  (113) 
=

>  <pIC50>  (113) 
6.34

>  <project_note>  (113) 
primary measurement

>  <source_row>  (113) 
113

>  <status>  (113) 
accepted

>  <duplicate_group_size>  (113) 
2

>  <source_rows>  (113) 
113 | 227

>  <patent_ids>  (113) 
DEMO-102-A1 | DEMO-103-A1

>  <assignees>  (113) 
Helixbridge Pharma | Kestrel BioDiscovery

>  <molecular_weight>  (113) 
205.301

>  <clogp>  (113) 
2.476

>  <tpsa>  (113) 
12.47

>  <hbd>  (113) 
0

>  <hba>  (113) 
2

>  <rotatable_bonds>  (113) 
3

>  <heavy_atoms>  (113) 
15

>  <rings>  (113) 
2

>  <pIC50_median>  (113) 
6.24

>  <n_measurements>  (113) 
2.0

>  <murcko_scaffold>  (113) 
c1ccc(N2CCOCC2)cc1

>  <scaffold_id>  (113) 
S002

>  <cluster_id>  (113) 
C024

$$$$
DPC0114
     RDKit          2D

 12 13  0  0  0  0  0  0  0  0999 V2000
    5.2500   -1.2990    0.0000 C   0  0  0  0  0  0  0  0  0  0  0  0
    3.7500   -1.2990    0.0000 C   0  0  0  0  0  0  0  0  0  0  0  0
    3.0000    0.0000    0.0000 C   0  0  0  0  0  0  0  0  0  0  0  0
    1.5000    0.0000    0.0000 C   0  0  0  0  0  0  0  0  0  0  0  0
    0.7500   -1.2990    0.0000 C   0  0  0  0  0  0  0  0  0  0  0  0
   -0.7500   -1.2990    0.0000 C   0  0  0  0  0  0  0  0  0  0  0  0
   -1.5000    0.0000    0.0000 C   0  0  0  0  0  0  0  0  0  0  0  0
   -3.0000    0.0000    0.0000 C   0  0  0  0  0  0  0  0  0  0  0  0
   -4.2990   -0.7500    0.0000 C   0  0  0  0  0  0  0  0  0  0  0  0
   -4.2990    0.7500    0.0000 C   0  0  0  0  0  0  0  0  0  0  0  0
   -0.7500    1.2990    0.0000 C   0  0  0  0  0  0  0  0  0  0  0  0
    0.7500    1.2990    0.0000 C   0  0  0  0  0  0  0  0  0  0  0  0
  1  2  1  0
  2  3  1  0
  3  4  1  0
  4  5  1  0
  5  6  2  0
  6  7  1  0
  7  8  1  0
  8  9  1  0
  9 10  1  0
  7 11  2  0
 11 12  1  0
 12  4  2  0
 10  8  1  0
M  END
>  <compound_id>  (114) 
DPC0114

>  <smiles>  (114) 
CCCc1ccc(C2CC2)cc1

>  <patent_id>  (114) 
DEMO-103-A1

>  <assignee>  (114) 
Kestrel BioDiscovery

>  <publication_date>  (114) 
2023-07-13

>  <year>  (114) 
2023

>  <series>  (114) 
phenyl

>  <assay_id>  (114) 
ASSAY-03-07

>  <standard_relation>  (114) 
=

>  <pIC50>  (114) 
6.06

>  <project_note>  (114) 
primary measurement

>  <source_row>  (114) 
114

>  <status>  (114) 
accepted

>  <duplicate_group_size>  (114) 
2

>  <source_rows>  (114) 
114 | 228

>  <patent_ids>  (114) 
DEMO-102-A1 | DEMO-103-A1

>  <assignees>  (114) 
Helixbridge Pharma | Kestrel BioDiscovery

>  <molecular_weight>  (114) 
160.26

>  <clogp>  (114) 
3.517

>  <tpsa>  (114) 
0.0

>  <hbd>  (114) 
0

>  <hba>  (114) 
0

>  <rotatable_bonds>  (114) 
3

>  <heavy_atoms>  (114) 
12

>  <rings>  (114) 
2

>  <pIC50_median>  (114) 
5.904999999999999

>  <n_measurements>  (114) 
2.0

>  <murcko_scaffold>  (114) 
c1ccc(C2CC2)cc1

>  <scaffold_id>  (114) 
S003

>  <cluster_id>  (114) 
C002

$$$$
DPC0115
     RDKit          2D

 15 16  0  0  0  0  0  0  0  0999 V2000
    5.2500   -1.2990    0.0000 C   0  0  0  0  0  0  0  0  0  0  0  0
    3.7500   -1.2990    0.0000 C   0  0  0  0  0  0  0  0  0  0  0  0
    3.0000    0.0000    0.0000 C   0  0  0  0  0  0  0  0  0  0  0  0
    1.5000    0.0000    0.0000 C   0  0  0  0  0  0  0  0  0  0  0  0
    0.7500   -1.2990    0.0000 C   0  0  0  0  0  0  0  0  0  0  0  0
   -0.7500   -1.2990    0.0000 C   0  0  0  0  0  0  0  0  0  0  0  0
   -1.5000    0.0000    0.0000 C   0  0  0  0  0  0  0  0  0  0  0  0
   -3.0000    0.0000    0.0000 C   0  0  0  0  0  0  0  0  0  0  0  0
   -3.7500    1.2990    0.0000 C   0  0  0  0  0  0  0  0  0  0  0  0
   -5.2500    1.2990    0.0000 C   0  0  0  0  0  0  0  0  0  0  0  0
   -6.0000    0.0000    0.0000 C   0  0  0  0  0  0  0  0  0  0  0  0
   -5.2500   -1.2990    0.0000 C   0  0  0  0  0  0  0  0  0  0  0  0
   -3.7500   -1.2990    0.0000 C   0  0  0  0  0  0  0  0  0  0  0  0
   -0.7500    1.2990    0.0000 C   0  0  0  0  0  0  0  0  0  0  0  0
    0.7500    1.2990    0.0000 C   0  0  0  0  0  0  0  0  0  0  0  0
  1  2  1  0
  2  3  1  0
  3  4  1  0
  4  5  1  0
  5  6  2  0
  6  7  1  0
  7  8  1  0
  8  9  1  0
  9 10  1  0
 10 11  1  0
 11 12  1  0
 12 13  1  0
  7 14  2  0
 14 15  1  0
 15  4  2  0
 13  8  1  0
M  END
>  <compound_id>  (115) 
DPC0115

>  <smiles>  (115) 
CCCc1ccc(C2CCCCC2)cc1

>  <patent_id>  (115) 
DEMO-103-A1

>  <assignee>  (115) 
Kestrel BioDiscovery

>  <publication_date>  (115) 
2023-07-13

>  <year>  (115) 
2023

>  <series>  (115) 
phenyl

>  <assay_id>  (115) 
ASSAY-03-08

>  <standard_relation>  (115) 
<

>  <pIC50>  (115) 
6.12

>  <project_note>  (115) 
primary measurement

>  <source_row>  (115) 
115

>  <status>  (115) 
accepted

>  <duplicate_group_size>  (115) 
1

>  <source_rows>  (115) 
115

>  <patent_ids>  (115) 
DEMO-103-A1

>  <assignees>  (115) 
Kestrel BioDiscovery

>  <molecular_weight>  (115) 
202.341

>  <clogp>  (115) 
4.687

>  <tpsa>  (115) 
0.0

>  <hbd>  (115) 
0

>  <hba>  (115) 
0

>  <rotatable_bonds>  (115) 
3

>  <heavy_atoms>  (115) 
15

>  <rings>  (115) 
2

>  <murcko_scaffold>  (115) 
c1ccc(C2CCCCC2)cc1

>  <scaffold_id>  (115) 
S004

>  <cluster_id>  (115) 
C012

$$$$
DPC0116
     RDKit          2D

 10 10  0  0  0  0  0  0  0  0999 V2000
    5.2500   -1.2990    0.0000 C   0  0  0  0  0  0  0  0  0  0  0  0
    3.7500   -1.2990    0.0000 C   0  0  0  0  0  0  0  0  0  0  0  0
    3.0000    0.0000    0.0000 C   0  0  0  0  0  0  0  0  0  0  0  0
    1.5000    0.0000    0.0000 C   0  0  0  0  0  0  0  0  0  0  0  0
    0.7500   -1.2990    0.0000 C   0  0  0  0  0  0  0  0  0  0  0  0
   -0.7500   -1.2990    0.0000 C   0  0  0  0  0  0  0  0  0  0  0  0
   -1.5000    0.0000    0.0000 C   0  0  0  0  0  0  0  0  0  0  0  0
   -3.0000    0.0000    0.0000 O   0  0  0  0  0  0  0  0  0  0  0  0
   -0.7500    1.2990    0.0000 C   0  0  0  0  0  0  0  0  0  0  0  0
    0.7500    1.2990    0.0000 C   0  0  0  0  0  0  0  0  0  0  0  0
  1  2  1  0
  2  3  1  0
  3  4  1  0
  4  5  1  0
  5  6  2  0
  6  7  1  0
  7  8  1  0
  7  9  2  0
  9 10  1  0
 10  4  2  0
M  END
>  <compound_id>  (116) 
DPC0116

>  <smiles>  (116) 
CCCc1ccc(O)cc1

>  <patent_id>  (116) 
DEMO-103-A1

>  <assignee>  (116) 
Kestrel BioDiscovery

>  <publication_date>  (116) 
2023-07-13

>  <year>  (116) 
2023

>  <series>  (116) 
phenyl

>  <assay_id>  (116) 
ASSAY-03-09

>  <standard_relation>  (116) 
=

>  <pIC50>  (116) 
5.8

>  <project_note>  (116) 
primary measurement

>  <source_row>  (116) 
116

>  <status>  (116) 
accepted

>  <duplicate_group_size>  (116) 
1

>  <source_rows>  (116) 
116

>  <patent_ids>  (116) 
DEMO-103-A1

>  <assignees>  (116) 
Kestrel BioDiscovery

>  <molecular_weight>  (116) 
136.194

>  <clogp>  (116) 
2.345

>  <tpsa>  (116) 
20.23

>  <hbd>  (116) 
1

>  <hba>  (116) 
1

>  <rotatable_bonds>  (116) 
2

>  <heavy_atoms>  (116) 
10

>  <rings>  (116) 
1

>  <pIC50_median>  (116) 
5.8

>  <n_measurements>  (116) 
1.0

>  <murcko_scaffold>  (116) 
c1ccccc1

>  <scaffold_id>  (116) 
S001

>  <cluster_id>  (116) 
C002

$$$$
DPC0117
     RDKit          2D

 12 12  0  0  0  0  0  0  0  0999 V2000
    5.2500   -1.2990    0.0000 C   0  0  0  0  0  0  0  0  0  0  0  0
    3.7500   -1.2990    0.0000 C   0  0  0  0  0  0  0  0  0  0  0  0
    3.0000    0.0000    0.0000 C   0  0  0  0  0  0  0  0  0  0  0  0
    1.5000    0.0000    0.0000 C   0  0  0  0  0  0  0  0  0  0  0  0
    0.7500   -1.2990    0.0000 C   0  0  0  0  0  0  0  0  0  0  0  0
   -0.7500   -1.2990    0.0000 C   0  0  0  0  0  0  0  0  0  0  0  0
   -1.5000    0.0000    0.0000 C   0  0  0  0  0  0  0  0  0  0  0  0
   -3.0000    0.0000    0.0000 C   0  0  0  0  0  0  0  0  0  0  0  0
   -3.7500   -1.2990    0.0000 O   0  0  0  0  0  0  0  0  0  0  0  0
   -3.7500    1.2990    0.0000 O   0  0  0  0  0  0  0  0  0  0  0  0
   -0.7500    1.2990    0.0000 C   0  0  0  0  0  0  0  0  0  0  0  0
    0.7500    1.2990    0.0000 C   0  0  0  0  0  0  0  0  0  0  0  0
  1  2  1  0
  2  3  1  0
  3  4  1  0
  4  5  1  0
  5  6  2  0
  6  7  1  0
  7  8  1  0
  8  9  2  0
  8 10  1  0
  7 11  2  0
 11 12  1  0
 12  4  2  0
M  END
>  <compound_id>  (117) 
DPC0117

>  <smiles>  (117) 
CCCc1ccc(C(=O)O)cc1

>  <patent_id>  (117) 
DEMO-103-A1

>  <assignee>  (117) 
Kestrel BioDiscovery

>  <publication_date>  (117) 
2023-07-13

>  <year>  (117) 
2023

>  <series>  (117) 
phenyl

>  <assay_id>  (117) 
ASSAY-03-10

>  <standard_relation>  (117) 
=

>  <pIC50>  (117) 
5.71

>  <project_note>  (117) 
primary measurement

>  <source_row>  (117) 
117

>  <status>  (117) 
accepted

>  <duplicate_group_size>  (117) 
1

>  <source_rows>  (117) 
117

>  <patent_ids>  (117) 
DEMO-103-A1

>  <assignees>  (117) 
Kestrel BioDiscovery

>  <molecular_weight>  (117) 
164.204

>  <clogp>  (117) 
2.337

>  <tpsa>  (117) 
37.3

>  <hbd>  (117) 
1

>  <hba>  (117) 
1

>  <rotatable_bonds>  (117) 
3

>  <heavy_atoms>  (117) 
12

>  <rings>  (117) 
1

>  <pIC50_median>  (117) 
5.71

>  <n_measurements>  (117) 
1.0

>  <murcko_scaffold>  (117) 
c1ccccc1

>  <scaffold_id>  (117) 
S001

>  <cluster_id>  (117) 
C002

$$$$
DPC0118
     RDKit          2D

 10 10  0  0  0  0  0  0  0  0999 V2000
    3.7500   -1.2990    0.0000 C   0  0  0  0  0  0  0  0  0  0  0  0
    3.0000    0.0000    0.0000 O   0  0  0  0  0  0  0  0  0  0  0  0
    1.5000    0.0000    0.0000 C   0  0  0  0  0  0  0  0  0  0  0  0
    0.7500   -1.2990    0.0000 C   0  0  0  0  0  0  0  0  0  0  0  0
   -0.7500   -1.2990    0.0000 C   0  0  0  0  0  0  0  0  0  0  0  0
   -1.5000    0.0000    0.0000 C   0  0  0  0  0  0  0  0  0  0  0  0
   -3.0000    0.0000    0.0000 O   0  0  0  0  0  0  0  0  0  0  0  0
   -3.7500    1.2990    0.0000 C   0  0  0  0  0  0  0  0  0  0  0  0
   -0.7500    1.2990    0.0000 C   0  0  0  0  0  0  0  0  0  0  0  0
    0.7500    1.2990    0.0000 C   0  0  0  0  0  0  0  0  0  0  0  0
  1  2  1  0
  2  3  1  0
  3  4  1  0
  4  5  2  0
  5  6  1  0
  6  7  1  0
  7  8  1  0
  6  9  2  0
  9 10  1  0
 10  3  2  0
M  END
>  <compound_id>  (118) 
DPC0118

>  <smiles>  (118) 
COc1ccc(OC)cc1

>  <patent_id>  (118) 
DEMO-103-A1

>  <assignee>  (118) 
Kestrel BioDiscovery

>  <publication_date>  (118) 
2023-07-13

>  <year>  (118) 
2023

>  <series>  (118) 
phenyl

>  <assay_id>  (118) 
ASSAY-03-11

>  <standard_relation>  (118) 
=

>  <pIC50>  (118) 
5.81

>  <project_note>  (118) 
primary measurement

>  <source_row>  (118) 
118

>  <status>  (118) 
accepted

>  <duplicate_group_size>  (118) 
1

>  <source_rows>  (118) 
118

>  <patent_ids>  (118) 
DEMO-103-A1

>  <assignees>  (118) 
Kestrel BioDiscovery

>  <molecular_weight>  (118) 
138.166

>  <clogp>  (118) 
1.704

>  <tpsa>  (118) 
18.46

>  <hbd>  (118) 
0

>  <hba>  (118) 
2

>  <rotatable_bonds>  (118) 
2

>  <heavy_atoms>  (118) 
10

>  <rings>  (118) 
1

>  <pIC50_median>  (118) 
5.81

>  <n_measurements>  (118) 
1.0

>  <murcko_scaffold>  (118) 
c1ccccc1

>  <scaffold_id>  (118) 
S001

>  <cluster_id>  (118) 
C004

$$$$
DPC0119
     RDKit          2D

 11 11  0  0  0  0  0  0  0  0999 V2000
    5.2500   -1.2990    0.0000 C   0  0  0  0  0  0  0  0  0  0  0  0
    3.7500   -1.2990    0.0000 C   0  0  0  0  0  0  0  0  0  0  0  0
    3.0000    0.0000    0.0000 O   0  0  0  0  0  0  0  0  0  0  0  0
    1.5000    0.0000    0.0000 C   0  0  0  0  0  0  0  0  0  0  0  0
    0.7500   -1.2990    0.0000 C   0  0  0  0  0  0  0  0  0  0  0  0
   -0.7500   -1.2990    0.0000 C   0  0  0  0  0  0  0  0  0  0  0  0
   -1.5000    0.0000    0.0000 C   0  0  0  0  0  0  0  0  0  0  0  0
   -3.0000    0.0000    0.0000 O   0  0  0  0  0  0  0  0  0  0  0  0
   -3.7500    1.2990    0.0000 C   0  0  0  0  0  0  0  0  0  0  0  0
   -0.7500    1.2990    0.0000 C   0  0  0  0  0  0  0  0  0  0  0  0
    0.7500    1.2990    0.0000 C   0  0  0  0  0  0  0  0  0  0  0  0
  1  2  1  0
  2  3  1  0
  3  4  1  0
  4  5  1  0
  5  6  2  0
  6  7  1  0
  7  8  1  0
  8  9  1  0
  7 10  2  0
 10 11  1  0
 11  4  2  0
M  END
>  <compound_id>  (119) 
DPC0119

>  <smiles>  (119) 
CCOc1ccc(OC)cc1

>  <patent_id>  (119) 
DEMO-103-A1

>  <assignee>  (119) 
Kestrel BioDiscovery

>  <publication_date>  (119) 
2023-07-13

>  <year>  (119) 
2023

>  <series>  (119) 
phenyl

>  <assay_id>  (119) 
ASSAY-03-12

>  <standard_relation>  (119) 
=

>  <pIC50>  (119) 
5.88

>  <project_note>  (119) 
primary measurement

>  <source_row>  (119) 
119

>  <status>  (119) 
accepted

>  <duplicate_group_size>  (119) 
1

>  <source_rows>  (119) 
119

>  <patent_ids>  (119) 
DEMO-103-A1

>  <assignees>  (119) 
Kestrel BioDiscovery

>  <molecular_weight>  (119) 
152.193

>  <clogp>  (119) 
2.094

>  <tpsa>  (119) 
18.46

>  <hbd>  (119) 
0

>  <hba>  (119) 
2

>  <rotatable_bonds>  (119) 
3

>  <heavy_atoms>  (119) 
11

>  <rings>  (119) 
1

>  <pIC50_median>  (119) 
5.88

>  <n_measurements>  (119) 
1.0

>  <murcko_scaffold>  (119) 
c1ccccc1

>  <scaffold_id>  (119) 
S001

>  <cluster_id>  (119) 
C001

$$$$
DPC0120
     RDKit          2D

  9  9  0  0  0  0  0  0  0  0999 V2000
    3.7500   -1.2990    0.0000 C   0  0  0  0  0  0  0  0  0  0  0  0
    3.0000    0.0000    0.0000 O   0  0  0  0  0  0  0  0  0  0  0  0
    1.5000    0.0000    0.0000 C   0  0  0  0  0  0  0  0  0  0  0  0
    0.7500   -1.2990    0.0000 C   0  0  0  0  0  0  0  0  0  0  0  0
   -0.7500   -1.2990    0.0000 C   0  0  0  0  0  0  0  0  0  0  0  0
   -1.5000    0.0000    0.0000 C   0  0  0  0  0  0  0  0  0  0  0  0
   -3.0000    0.0000    0.0000 N   0  0  0  0  0  0  0  0  0  0  0  0
   -0.7500    1.2990    0.0000 C   0  0  0  0  0  0  0  0  0  0  0  0
    0.7500    1.2990    0.0000 C   0  0  0  0  0  0  0  0  0  0  0  0
  1  2  1  0
  2  3  1  0
  3  4  1  0
  4  5  2  0
  5  6  1  0
  6  7  1  0
  6  8  2  0
  8  9  1  0
  9  3  2  0
M  END
>  <compound_id>  (120) 
DPC0120

>  <smiles>  (120) 
COc1ccc(N)cc1

>  <patent_id>  (120) 
DEMO-103-A1

>  <assignee>  (120) 
Kestrel BioDiscovery

>  <publication_date>  (120) 
2023-07-13

>  <year>  (120) 
2023

>  <series>  (120) 
phenyl

>  <assay_id>  (120) 
ASSAY-03-01

>  <standard_relation>  (120) 
=

>  <pIC50>  (120) 
5.87

>  <project_note>  (120) 
primary measurement

>  <source_row>  (120) 
120

>  <status>  (120) 
accepted

>  <duplicate_group_size>  (120) 
1

>  <source_rows>  (120) 
120

>  <patent_ids>  (120) 
DEMO-103-A1

>  <assignees>  (120) 
Kestrel BioDiscovery

>  <molecular_weight>  (120) 
123.155

>  <clogp>  (120) 
1.277

>  <tpsa>  (120) 
35.25

>  <hbd>  (120) 
1

>  <hba>  (120) 
2

>  <rotatable_bonds>  (120) 
1

>  <heavy_atoms>  (120) 
9

>  <rings>  (120) 
1

>  <pIC50_median>  (120) 
5.87

>  <n_measurements>  (120) 
1.0

>  <murcko_scaffold>  (120) 
c1ccccc1

>  <scaffold_id>  (120) 
S001

>  <cluster_id>  (120) 
C004

$$$$
DPC0121
     RDKit          2D

 10 10  0  0  0  0  0  0  0  0999 V2000
    3.7500   -1.2990    0.0000 C   0  0  0  0  0  0  0  0  0  0  0  0
    3.0000    0.0000    0.0000 N   0  0  0  0  0  0  0  0  0  0  0  0
    1.5000    0.0000    0.0000 C   0  0  0  0  0  0  0  0  0  0  0  0
    0.7500   -1.2990    0.0000 C   0  0  0  0  0  0  0  0  0  0  0  0
   -0.7500   -1.2990    0.0000 C   0  0  0  0  0  0  0  0  0  0  0  0
   -1.5000    0.0000    0.0000 C   0  0  0  0  0  0  0  0  0  0  0  0
   -3.0000    0.0000    0.0000 O   0  0  0  0  0  0  0  0  0  0  0  0
   -3.7500    1.2990    0.0000 C   0  0  0  0  0  0  0  0  0  0  0  0
   -0.7500    1.2990    0.0000 C   0  0  0  0  0  0  0  0  0  0  0  0
    0.7500    1.2990    0.0000 C   0  0  0  0  0  0  0  0  0  0  0  0
  1  2  1  0
  2  3  1  0
  3  4  1  0
  4  5  2  0
  5  6  1  0
  6  7  1  0
  7  8  1  0
  6  9  2  0
  9 10  1  0
 10  3  2  0
M  END
>  <compound_id>  (121) 
DPC0121

>  <smiles>  (121) 
CNc1ccc(OC)cc1

>  <patent_id>  (121) 
DEMO-103-A1

>  <assignee>  (121) 
Kestrel BioDiscovery

>  <publication_date>  (121) 
2023-07-13

>  <year>  (121) 
2023

>  <series>  (121) 
phenyl

>  <assay_id>  (121) 
ASSAY-03-02

>  <standard_relation>  (121) 
=

>  <pIC50>  (121) 
6.08

>  <project_note>  (121) 
primary measurement

>  <source_row>  (121) 
121

>  <status>  (121) 
accepted

>  <duplicate_group_size>  (121) 
1

>  <source_rows>  (121) 
121

>  <patent_ids>  (121) 
DEMO-103-A1

>  <assignees>  (121) 
Kestrel BioDiscovery

>  <molecular_weight>  (121) 
137.182

>  <clogp>  (121) 
1.737

>  <tpsa>  (121) 
21.26

>  <hbd>  (121) 
1

>  <hba>  (121) 
2

>  <rotatable_bonds>  (121) 
2

>  <heavy_atoms>  (121) 
10

>  <rings>  (121) 
1

>  <pIC50_median>  (121) 
6.08

>  <n_measurements>  (121) 
1.0

>  <murcko_scaffold>  (121) 
c1ccccc1

>  <scaffold_id>  (121) 
S001

>  <cluster_id>  (121) 
C004

$$$$
DPC0122
     RDKit          2D

 11 11  0  0  0  0  0  0  0  0999 V2000
    3.7500   -1.2990    0.0000 C   0  0  0  0  0  0  0  0  0  0  0  0
    3.0000    0.0000    0.0000 O   0  0  0  0  0  0  0  0  0  0  0  0
    1.5000    0.0000    0.0000 C   0  0  0  0  0  0  0  0  0  0  0  0
    0.7500   -1.2990    0.0000 C   0  0  0  0  0  0  0  0  0  0  0  0
   -0.7500   -1.2990    0.0000 C   0  0  0  0  0  0  0  0  0  0  0  0
   -1.5000    0.0000    0.0000 C   0  0  0  0  0  0  0  0  0  0  0  0
   -3.0000    0.0000    0.0000 N   0  0  0  0  0  0  0  0  0  0  0  0
   -3.7500    1.2990    0.0000 C   0  0  0  0  0  0  0  0  0  0  0  0
   -3.7500   -1.2990    0.0000 C   0  0  0  0  0  0  0  0  0  0  0  0
   -0.7500    1.2990    0.0000 C   0  0  0  0  0  0  0  0  0  0  0  0
    0.7500    1.2990    0.0000 C   0  0  0  0  0  0  0  0  0  0  0  0
  1  2  1  0
  2  3  1  0
  3  4  1  0
  4  5  2  0
  5  6  1  0
  6  7  1  0
  7  8  1  0
  7  9  1  0
  6 10  2  0
 10 11  1  0
 11  3  2  0
M  END
>  <compound_id>  (122) 
DPC0122

>  <smiles>  (122) 
COc1ccc(N(C)C)cc1

>  <patent_id>  (122) 
DEMO-103-A1

>  <assignee>  (122) 
Kestrel BioDiscovery

>  <publication_date>  (122) 
2023-07-13

>  <year>  (122) 
2023

>  <series>  (122) 
phenyl

>  <assay_id>  (122) 
ASSAY-03-03

>  <standard_relation>  (122) 
=

>  <pIC50>  (122) 
6.27

>  <project_note>  (122) 
primary measurement

>  <source_row>  (122) 
122

>  <status>  (122) 
accepted

>  <duplicate_group_size>  (122) 
1

>  <source_rows>  (122) 
122

>  <patent_ids>  (122) 
DEMO-103-A1

>  <assignees>  (122) 
Kestrel BioDiscovery

>  <molecular_weight>  (122) 
151.209

>  <clogp>  (122) 
1.761

>  <tpsa>  (122) 
12.47

>  <hbd>  (122) 
0

>  <hba>  (122) 
2

>  <rotatable_bonds>  (122) 
2

>  <heavy_atoms>  (122) 
11

>  <rings>  (122) 
1

>  <pIC50_median>  (122) 
6.27

>  <n_measurements>  (122) 
1.0

>  <murcko_scaffold>  (122) 
c1ccccc1

>  <scaffold_id>  (122) 
S001

>  <cluster_id>  (122) 
C004

$$$$
DPC0123
     RDKit          2D

 10 10  0  0  0  0  0  0  0  0999 V2000
    3.7500   -1.2990    0.0000 C   0  0  0  0  0  0  0  0  0  0  0  0
    3.0000    0.0000    0.0000 O   0  0  0  0  0  0  0  0  0  0  0  0
    1.5000    0.0000    0.0000 C   0  0  0  0  0  0  0  0  0  0  0  0
    0.7500   -1.2990    0.0000 C   0  0  0  0  0  0  0  0  0  0  0  0
   -0.7500   -1.2990    0.0000 C   0  0  0  0  0  0  0  0  0  0  0  0
   -1.5000    0.0000    0.0000 C   0  0  0  0  0  0  0  0  0  0  0  0
   -3.0000    0.0000    0.0000 C   0  0  0  0  0  0  0  0  0  0  0  0
   -4.5000    0.0000    0.0000 N   0  0  0  0  0  0  0  0  0  0  0  0
   -0.7500    1.2990    0.0000 C   0  0  0  0  0  0  0  0  0  0  0  0
    0.7500    1.2990    0.0000 C   0  0  0  0  0  0  0  0  0  0  0  0
  1  2  1  0
  2  3  1  0
  3  4  1  0
  4  5  2  0
  5  6  1  0
  6  7  1  0
  7  8  3  0
  6  9  2  0
  9 10  1  0
 10  3  2  0
M  END
>  <compound_id>  (123) 
DPC0123

>  <smiles>  (123) 
COc1ccc(C#N)cc1

>  <patent_id>  (123) 
DEMO-103-A1

>  <assignee>  (123) 
Kestrel BioDiscovery

>  <publication_date>  (123) 
2023-07-13

>  <year>  (123) 
2023

>  <series>  (123) 
phenyl

>  <assay_id>  (123) 
ASSAY-03-04

>  <standard_relation>  (123) 
=

>  <pIC50>  (123) 
6.38

>  <project_note>  (123) 
primary measurement

>  <source_row>  (123) 
123

>  <status>  (123) 
accepted

>  <duplicate_group_size>  (123) 
1

>  <source_rows>  (123) 
123

>  <patent_ids>  (123) 
DEMO-103-A1

>  <assignees>  (123) 
Kestrel BioDiscovery

>  <molecular_weight>  (123) 
133.15

>  <clogp>  (123) 
1.567

>  <tpsa>  (123) 
33.02

>  <hbd>  (123) 
0

>  <hba>  (123) 
2

>  <rotatable_bonds>  (123) 
1

>  <heavy_atoms>  (123) 
10

>  <rings>  (123) 
1

>  <pIC50_median>  (123) 
6.38

>  <n_measurements>  (123) 
1.0

>  <murcko_scaffold>  (123) 
c1ccccc1

>  <scaffold_id>  (123) 
S001

>  <cluster_id>  (123) 
C004

$$$$
DPC0124
     RDKit          2D

 12 12  0  0  0  0  0  0  0  0999 V2000
    3.7500   -1.2990    0.0000 C   0  0  0  0  0  0  0  0  0  0  0  0
    3.0000    0.0000    0.0000 O   0  0  0  0  0  0  0  0  0  0  0  0
    1.5000    0.0000    0.0000 C   0  0  0  0  0  0  0  0  0  0  0  0
    0.7500   -1.2990    0.0000 C   0  0  0  0  0  0  0  0  0  0  0  0
   -0.7500   -1.2990    0.0000 C   0  0  0  0  0  0  0  0  0  0  0  0
   -1.5000    0.0000    0.0000 C   0  0  0  0  0  0  0  0  0  0  0  0
   -3.0000    0.0000    0.0000 C   0  0  0  0  0  0  0  0  0  0  0  0
   -4.5000    0.0000    0.0000 F   0  0  0  0  0  0  0  0  0  0  0  0
   -3.0000    1.5000    0.0000 F   0  0  0  0  0  0  0  0  0  0  0  0
   -3.0000   -1.5000    0.0000 F   0  0  0  0  0  0  0  0  0  0  0  0
   -0.7500    1.2990    0.0000 C   0  0  0  0  0  0  0  0  0  0  0  0
    0.7500    1.2990    0.0000 C   0  0  0  0  0  0  0  0  0  0  0  0
  1  2  1  0
  2  3  1  0
  3  4  1  0
  4  5  2  0
  5  6  1  0
  6  7  1  0
  7  8  1  0
  7  9  1  0
  7 10  1  0
  6 11  2  0
 11 12  1  0
 12  3  2  0
M  END
>  <compound_id>  (124) 
DPC0124

>  <smiles>  (124) 
COc1ccc(C(F)(F)F)cc1

>  <patent_id>  (124) 
DEMO-103-A1

>  <assignee>  (124) 
Kestrel BioDiscovery

>  <publication_date>  (124) 
2023-07-13

>  <year>  (124) 
2023

>  <series>  (124) 
phenyl

>  <assay_id>  (124) 
ASSAY-03-05

>  <standard_relation>  (124) 
=

>  <pIC50>  (124) 
6.27

>  <project_note>  (124) 
primary measurement

>  <source_row>  (124) 
124

>  <status>  (124) 
accepted

>  <duplicate_group_size>  (124) 
1

>  <source_rows>  (124) 
124

>  <patent_ids>  (124) 
DEMO-103-A1

>  <assignees>  (124) 
Kestrel BioDiscovery

>  <molecular_weight>  (124) 
176.137

>  <clogp>  (124) 
2.714

>  <tpsa>  (124) 
9.23

>  <hbd>  (124) 
0

>  <hba>  (124) 
1

>  <rotatable_bonds>  (124) 
1

>  <heavy_atoms>  (124) 
12

>  <rings>  (124) 
1

>  <pIC50_median>  (124) 
6.27

>  <n_measurements>  (124) 
1.0

>  <murcko_scaffold>  (124) 
c1ccccc1

>  <scaffold_id>  (124) 
S001

>  <cluster_id>  (124) 
C004

$$$$
DPC0125
     RDKit          2D

 11 11  0  0  0  0  0  0  0  0999 V2000
    3.7500   -1.2990    0.0000 C   0  0  0  0  0  0  0  0  0  0  0  0
    3.0000    0.0000    0.0000 O   0  0  0  0  0  0  0  0  0  0  0  0
    1.5000    0.0000    0.0000 C   0  0  0  0  0  0  0  0  0  0  0  0
    0.7500   -1.2990    0.0000 C   0  0  0  0  0  0  0  0  0  0  0  0
   -0.7500   -1.2990    0.0000 C   0  0  0  0  0  0  0  0  0  0  0  0
   -1.5000    0.0000    0.0000 C   0  0  0  0  0  0  0  0  0  0  0  0
   -3.0000    0.0000    0.0000 C   0  0  0  0  0  0  0  0  0  0  0  0
   -3.7500    1.2990    0.0000 N   0  0  0  0  0  0  0  0  0  0  0  0
   -3.7500   -1.2990    0.0000 O   0  0  0  0  0  0  0  0  0  0  0  0
   -0.7500    1.2990    0.0000 C   0  0  0  0  0  0  0  0  0  0  0  0
    0.7500    1.2990    0.0000 C   0  0  0  0  0  0  0  0  0  0  0  0
  1  2  1  0
  2  3  1  0
  3  4  1  0
  4  5  2  0
  5  6  1  0
  6  7  1  0
  7  8  1  0
  7  9  2  0
  6 10  2  0
 10 11  1  0
 11  3  2  0
M  END
>  <compound_id>  (125) 
DPC0125

>  <smiles>  (125) 
COc1ccc(C(N)=O)cc1

>  <patent_id>  (125) 
DEMO-103-A1

>  <assignee>  (125) 
Kestrel BioDiscovery

>  <publication_date>  (125) 
2023-07-13

>  <year>  (125) 
2023

>  <series>  (125) 
phenyl

>  <assay_id>  (125) 
ASSAY-03-06

>  <standard_relation>  (125) 
=

>  <pIC50>  (125) 
6.13

>  <project_note>  (125) 
primary measurement

>  <source_row>  (125) 
125

>  <status>  (125) 
accepted

>  <duplicate_group_size>  (125) 
1

>  <source_rows>  (125) 
125

>  <patent_ids>  (125) 
DEMO-103-A1

>  <assignees>  (125) 
Kestrel BioDiscovery

>  <molecular_weight>  (125) 
151.165

>  <clogp>  (125) 
0.794

>  <tpsa>  (125) 
52.32

>  <hbd>  (125) 
1

>  <hba>  (125) 
2

>  <rotatable_bonds>  (125) 
2

>  <heavy_atoms>  (125) 
11

>  <rings>  (125) 
1

>  <pIC50_median>  (125) 
6.13

>  <n_measurements>  (125) 
1.0

>  <murcko_scaffold>  (125) 
c1ccccc1

>  <scaffold_id>  (125) 
S001

>  <cluster_id>  (125) 
C003

$$$$
DPC0126
     RDKit          2D

 12 12  0  0  0  0  0  0  0  0999 V2000
    5.2500   -1.2990    0.0000 C   0  0  0  0  0  0  0  0  0  0  0  0
    3.7500   -1.2990    0.0000 N   0  0  0  0  0  0  0  0  0  0  0  0
    3.0000    0.0000    0.0000 C   0  0  0  0  0  0  0  0  0  0  0  0
    3.7500    1.2990    0.0000 O   0  0  0  0  0  0  0  0  0  0  0  0
    1.5000    0.0000    0.0000 C   0  0  0  0  0  0  0  0  0  0  0  0
    0.7500   -1.2990    0.0000 C   0  0  0  0  0  0  0  0  0  0  0  0
   -0.7500   -1.2990    0.0000 C   0  0  0  0  0  0  0  0  0  0  0  0
   -1.5000    0.0000    0.0000 C   0  0  0  0  0  0  0  0  0  0  0  0
   -3.0000    0.0000    0.0000 O   0  0  0  0  0  0  0  0  0  0  0  0
   -3.7500    1.2990    0.0000 C   0  0  0  0  0  0  0  0  0  0  0  0
   -0.7500    1.2990    0.0000 C   0  0  0  0  0  0  0  0  0  0  0  0
    0.7500    1.2990    0.0000 C   0  0  0  0  0  0  0  0  0  0  0  0
  1  2  1  0
  2  3  1  0
  3  4  2  0
  3  5  1  0
  5  6  1  0
  6  7  2  0
  7  8  1  0
  8  9  1  0
  9 10  1  0
  8 11  2  0
 11 12  1  0
 12  5  2  0
M  END
>  <compound_id>  (126) 
DPC0126

>  <smiles>  (126) 
CNC(=O)c1ccc(OC)cc1

>  <patent_id>  (126) 
DEMO-103-A1

>  <assignee>  (126) 
Kestrel BioDiscovery

>  <publication_date>  (126) 
2023-07-13

>  <year>  (126) 
2023

>  <series>  (126) 
phenyl

>  <assay_id>  (126) 
ASSAY-03-07

>  <standard_relation>  (126) 
=

>  <pIC50>  (126) 
6.11

>  <project_note>  (126) 
primary measurement

>  <source_row>  (126) 
126

>  <status>  (126) 
accepted

>  <duplicate_group_size>  (126) 
1

>  <source_rows>  (126) 
126

>  <patent_ids>  (126) 
DEMO-103-A1

>  <assignees>  (126) 
Kestrel BioDiscovery

>  <molecular_weight>  (126) 
165.192

>  <clogp>  (126) 
1.055

>  <tpsa>  (126) 
38.33

>  <hbd>  (126) 
1

>  <hba>  (126) 
2

>  <rotatable_bonds>  (126) 
2

>  <heavy_atoms>  (126) 
12

>  <rings>  (126) 
1

>  <pIC50_median>  (126) 
6.11

>  <n_measurements>  (126) 
1.0

>  <murcko_scaffold>  (126) 
c1ccccc1

>  <scaffold_id>  (126) 
S001

>  <cluster_id>  (126) 
C010

$$$$
DPC0127
     RDKit          2D

 12 12  0  0  0  0  0  0  0  0999 V2000
    3.7500   -1.2990    0.0000 C   0  0  0  0  0  0  0  0  0  0  0  0
    3.0000    0.0000    0.0000 O   0  0  0  0  0  0  0  0  0  0  0  0
    1.5000    0.0000    0.0000 C   0  0  0  0  0  0  0  0  0  0  0  0
    0.7500   -1.2990    0.0000 C   0  0  0  0  0  0  0  0  0  0  0  0
   -0.7500   -1.2990    0.0000 C   0  0  0  0  0  0  0  0  0  0  0  0
   -1.5000    0.0000    0.0000 C   0  0  0  0  0  0  0  0  0  0  0  0
   -3.0000    0.0000    0.0000 S   0  0  0  0  0  0  0  0  0  0  0  0
   -4.5000    0.0000    0.0000 N   0  0  0  0  0  0  0  0  0  0  0  0
   -3.0000    1.5000    0.0000 O   0  0  0  0  0  0  0  0  0  0  0  0
   -3.0000   -1.5000    0.0000 O   0  0  0  0  0  0  0  0  0  0  0  0
   -0.7500    1.2990    0.0000 C   0  0  0  0  0  0  0  0  0  0  0  0
    0.7500    1.2990    0.0000 C   0  0  0  0  0  0  0  0  0  0  0  0
  1  2  1  0
  2  3  1  0
  3  4  1  0
  4  5  2  0
  5  6  1  0
  6  7  1  0
  7  8  1  0
  7  9  2  0
  7 10  2  0
  6 11  2  0
 11 12  1  0
 12  3  2  0
M  END
>  <compound_id>  (127) 
DPC0127

>  <smiles>  (127) 
COc1ccc(S(N)(=O)=O)cc1

>  <patent_id>  (127) 
DEMO-103-A1

>  <assignee>  (127) 
Kestrel BioDiscovery

>  <publication_date>  (127) 
2023-07-13

>  <year>  (127) 
2023

>  <series>  (127) 
phenyl

>  <assay_id>  (127) 
ASSAY-03-08

>  <standard_relation>  (127) 
=

>  <pIC50>  (127) 
5.98

>  <project_note>  (127) 
primary measurement

>  <source_row>  (127) 
127

>  <status>  (127) 
accepted

>  <duplicate_group_size>  (127) 
1

>  <source_rows>  (127) 
127

>  <patent_ids>  (127) 
DEMO-103-A1

>  <assignees>  (127) 
Kestrel BioDiscovery

>  <molecular_weight>  (127) 
187.22

>  <clogp>  (127) 
0.343

>  <tpsa>  (127) 
69.39

>  <hbd>  (127) 
1

>  <hba>  (127) 
3

>  <rotatable_bonds>  (127) 
2

>  <heavy_atoms>  (127) 
12

>  <rings>  (127) 
1

>  <pIC50_median>  (127) 
5.98

>  <n_measurements>  (127) 
1.0

>  <murcko_scaffold>  (127) 
c1ccccc1

>  <scaffold_id>  (127) 
S001

>  <cluster_id>  (127) 
C014

$$$$
DPC0128
     RDKit          2D

 13 13  0  0  0  0  0  0  0  0999 V2000
    3.7500   -1.2990    0.0000 C   0  0  0  0  0  0  0  0  0  0  0  0
    3.0000    0.0000    0.0000 O   0  0  0  0  0  0  0  0  0  0  0  0
    1.5000    0.0000    0.0000 C   0  0  0  0  0  0  0  0  0  0  0  0
    0.7500   -1.2990    0.0000 C   0  0  0  0  0  0  0  0  0  0  0  0
   -0.7500   -1.2990    0.0000 C   0  0  0  0  0  0  0  0  0  0  0  0
   -1.5000    0.0000    0.0000 C   0  0  0  0  0  0  0  0  0  0  0  0
   -3.0000    0.0000    0.0000 O   0  0  0  0  0  0  0  0  0  0  0  0
   -3.7500    1.2990    0.0000 C   0  0  0  0  0  0  0  0  0  0  0  0
   -4.5000    2.5981    0.0000 F   0  0  0  0  0  0  0  0  0  0  0  0
   -5.0490    0.5490    0.0000 F   0  0  0  0  0  0  0  0  0  0  0  0
   -2.4510    2.0490    0.0000 F   0  0  0  0  0  0  0  0  0  0  0  0
   -0.7500    1.2990    0.0000 C   0  0  0  0  0  0  0  0  0  0  0  0
    0.7500    1.2990    0.0000 C   0  0  0  0  0  0  0  0  0  0  0  0
  1  2  1  0
  2  3  1  0
  3  4  1  0
  4  5  2  0
  5  6  1  0
  6  7  1  0
  7  8  1  0
  8  9  1  0
  8 10  1  0
  8 11  1  0
  6 12  2  0
 12 13  1  0
 13  3  2  0
M  END
>  <compound_id>  (128) 
DPC0128

>  <smiles>  (128) 
COc1ccc(OC(F)(F)F)cc1

>  <patent_id>  (128) 
DEMO-103-A1

>  <assignee>  (128) 
Kestrel BioDiscovery

>  <publication_date>  (128) 
2023-07-13

>  <year>  (128) 
2023

>  <series>  (128) 
phenyl

>  <assay_id>  (128) 
ASSAY-03-09

>  <standard_relation>  (128) 
=

>  <pIC50>  (128) 
6.06

>  <project_note>  (128) 
primary measurement

>  <source_row>  (128) 
128

>  <status>  (128) 
accepted

>  <duplicate_group_size>  (128) 
1

>  <source_rows>  (128) 
128

>  <patent_ids>  (128) 
DEMO-103-A1

>  <assignees>  (128) 
Kestrel BioDiscovery

>  <molecular_weight>  (128) 
192.136

>  <clogp>  (128) 
2.594

>  <tpsa>  (128) 
18.46

>  <hbd>  (128) 
0

>  <hba>  (128) 
2

>  <rotatable_bonds>  (128) 
2

>  <heavy_atoms>  (128) 
13

>  <rings>  (128) 
1

>  <pIC50_median>  (128) 
6.06

>  <n_measurements>  (128) 
1.0

>  <murcko_scaffold>  (128) 
c1ccccc1

>  <scaffold_id>  (128) 
S001

>  <cluster_id>  (128) 
C004

$$$$
DPC0129
     RDKit          2D

 14 15  0  0  0  0  0  0  0  0999 V2000
    3.7500   -1.2990    0.0000 C   0  0  0  0  0  0  0  0  0  0  0  0
    3.0000    0.0000    0.0000 O   0  0  0  0  0  0  0  0  0  0  0  0
    1.5000    0.0000    0.0000 C   0  0  0  0  0  0  0  0  0  0  0  0
    0.7500   -1.2990    0.0000 C   0  0  0  0  0  0  0  0  0  0  0  0
   -0.7500   -1.2990    0.0000 C   0  0  0  0  0  0  0  0  0  0  0  0
   -1.5000    0.0000    0.0000 C   0  0  0  0  0  0  0  0  0  0  0  0
   -3.0000    0.0000    0.0000 N   0  0  0  0  0  0  0  0  0  0  0  0
   -3.7500    1.2990    0.0000 C   0  0  0  0  0  0  0  0  0  0  0  0
   -5.2500    1.2990    0.0000 C   0  0  0  0  0  0  0  0  0  0  0  0
   -6.0000    0.0000    0.0000 O   0  0  0  0  0  0  0  0  0  0  0  0
   -5.2500   -1.2990    0.0000 C   0  0  0  0  0  0  0  0  0  0  0  0
   -3.7500   -1.2990    0.0000 C   0  0  0  0  0  0  0  0  0  0  0  0
   -0.7500    1.2990    0.0000 C   0  0  0  0  0  0  0  0  0  0  0  0
    0.7500    1.2990    0.0000 C   0  0  0  0  0  0  0  0  0  0  0  0
  1  2  1  0
  2  3  1  0
  3  4  1  0
  4  5  2  0
  5  6  1  0
  6  7  1  0
  7  8  1  0
  8  9  1  0
  9 10  1  0
 10 11  1  0
 11 12  1  0
  6 13  2  0
 13 14  1  0
 14  3  2  0
 12  7  1  0
M  END
>  <compound_id>  (129) 
DPC0129

>  <smiles>  (129) 
COc1ccc(N2CCOCC2)cc1

>  <patent_id>  (129) 
DEMO-103-A1

>  <assignee>  (129) 
Kestrel BioDiscovery

>  <publication_date>  (129) 
2023-07-13

>  <year>  (129) 
2023

>  <series>  (129) 
phenyl

>  <assay_id>  (129) 
ASSAY-03-10

>  <standard_relation>  (129) 
=

>  <pIC50>  (129) 
6.39

>  <project_note>  (129) 
primary measurement

>  <source_row>  (129) 
129

>  <status>  (129) 
accepted

>  <duplicate_group_size>  (129) 
1

>  <source_rows>  (129) 
129

>  <patent_ids>  (129) 
DEMO-103-A1

>  <assignees>  (129) 
Kestrel BioDiscovery

>  <molecular_weight>  (129) 
193.246

>  <clogp>  (129) 
1.532

>  <tpsa>  (129) 
21.7

>  <hbd>  (129) 
0

>  <hba>  (129) 
3

>  <rotatable_bonds>  (129) 
2

>  <heavy_atoms>  (129) 
14

>  <rings>  (129) 
2

>  <pIC50_median>  (129) 
6.39

>  <n_measurements>  (129) 
1.0

>  <murcko_scaffold>  (129) 
c1ccc(N2CCOCC2)cc1

>  <scaffold_id>  (129) 
S002

>  <cluster_id>  (129) 
C011

$$$$
DPC0130
     RDKit          2D

 11 12  0  0  0  0  0  0  0  0999 V2000
    3.7500   -1.2990    0.0000 C   0  0  0  0  0  0  0  0  0  0  0  0
    3.0000    0.0000    0.0000 O   0  0  0  0  0  0  0  0  0  0  0  0
    1.5000    0.0000    0.0000 C   0  0  0  0  0  0  0  0  0  0  0  0
    0.7500   -1.2990    0.0000 C   0  0  0  0  0  0  0  0  0  0  0  0
   -0.7500   -1.2990    0.0000 C   0  0  0  0  0  0  0  0  0  0  0  0
   -1.5000    0.0000    0.0000 C   0  0  0  0  0  0  0  0  0  0  0  0
   -3.0000    0.0000    0.0000 C   0  0  0  0  0  0  0  0  0  0  0  0
   -4.2990   -0.7500    0.0000 C   0  0  0  0  0  0  0  0  0  0  0  0
   -4.2990    0.7500    0.0000 C   0  0  0  0  0  0  0  0  0  0  0  0
   -0.7500    1.2990    0.0000 C   0  0  0  0  0  0  0  0  0  0  0  0
    0.7500    1.2990    0.0000 C   0  0  0  0  0  0  0  0  0  0  0  0
  1  2  1  0
  2  3  1  0
  3  4  1  0
  4  5  2  0
  5  6  1  0
  6  7  1  0
  7  8  1  0
  8  9  1  0
  6 10  2  0
 10 11  1  0
 11  3  2  0
  9  7  1  0
M  END
>  <compound_id>  (130) 
DPC0130

>  <smiles>  (130) 
COc1ccc(C2CC2)cc1

>  <patent_id>  (130) 
DEMO-103-A1

>  <assignee>  (130) 
Kestrel BioDiscovery

>  <publication_date>  (130) 
2023-07-13

>  <year>  (130) 
2023

>  <series>  (130) 
phenyl

>  <assay_id>  (130) 
ASSAY-03-11

>  <standard_relation>  (130) 
=

>  <pIC50>  (130) 
6.21

>  <project_note>  (130) 
primary measurement

>  <source_row>  (130) 
130

>  <status>  (130) 
accepted

>  <duplicate_group_size>  (130) 
1

>  <source_rows>  (130) 
130

>  <patent_ids>  (130) 
DEMO-103-A1

>  <assignees>  (130) 
Kestrel BioDiscovery

>  <molecular_weight>  (130) 
148.205

>  <clogp>  (130) 
2.573

>  <tpsa>  (130) 
9.23

>  <hbd>  (130) 
0

>  <hba>  (130) 
1

>  <rotatable_bonds>  (130) 
2

>  <heavy_atoms>  (130) 
11

>  <rings>  (130) 
2

>  <pIC50_median>  (130) 
6.21

>  <n_measurements>  (130) 
1.0

>  <murcko_scaffold>  (130) 
c1ccc(C2CC2)cc1

>  <scaffold_id>  (130) 
S003

>  <cluster_id>  (130) 
C004

$$$$
DPC0131
     RDKit          2D

 14 15  0  0  0  0  0  0  0  0999 V2000
    3.7500   -1.2990    0.0000 C   0  0  0  0  0  0  0  0  0  0  0  0
    3.0000    0.0000    0.0000 O   0  0  0  0  0  0  0  0  0  0  0  0
    1.5000    0.0000    0.0000 C   0  0  0  0  0  0  0  0  0  0  0  0
    0.7500   -1.2990    0.0000 C   0  0  0  0  0  0  0  0  0  0  0  0
   -0.7500   -1.2990    0.0000 C   0  0  0  0  0  0  0  0  0  0  0  0
   -1.5000    0.0000    0.0000 C   0  0  0  0  0  0  0  0  0  0  0  0
   -3.0000    0.0000    0.0000 C   0  0  0  0  0  0  0  0  0  0  0  0
   -3.7500    1.2990    0.0000 C   0  0  0  0  0  0  0  0  0  0  0  0
   -5.2500    1.2990    0.0000 C   0  0  0  0  0  0  0  0  0  0  0  0
   -6.0000    0.0000    0.0000 C   0  0  0  0  0  0  0  0  0  0  0  0
   -5.2500   -1.2990    0.0000 C   0  0  0  0  0  0  0  0  0  0  0  0
   -3.7500   -1.2990    0.0000 C   0  0  0  0  0  0  0  0  0  0  0  0
   -0.7500    1.2990    0.0000 C   0  0  0  0  0  0  0  0  0  0  0  0
    0.7500    1.2990    0.0000 C   0  0  0  0  0  0  0  0  0  0  0  0
  1  2  1  0
  2  3  1  0
  3  4  1  0
  4  5  2  0
  5  6  1  0
  6  7  1  0
  7  8  1  0
  8  9  1  0
  9 10  1  0
 10 11  1  0
 11 12  1  0
  6 13  2  0
 13 14  1  0
 14  3  2  0
 12  7  1  0
M  END
>  <compound_id>  (131) 
DPC0131

>  <smiles>  (131) 
COc1ccc(C2CCCCC2)cc1

>  <patent_id>  (131) 
DEMO-103-A1

>  <assignee>  (131) 
Kestrel BioDiscovery

>  <publication_date>  (131) 
2023-07-13

>  <year>  (131) 
2023

>  <series>  (131) 
phenyl

>  <assay_id>  (131) 
ASSAY-03-12

>  <standard_relation>  (131) 
=

>  <pIC50>  (131) 
6.39

>  <project_note>  (131) 
primary measurement

>  <source_row>  (131) 
131

>  <status>  (131) 
accepted

>  <duplicate_group_size>  (131) 
1

>  <source_rows>  (131) 
131

>  <patent_ids>  (131) 
DEMO-103-A1

>  <assignees>  (131) 
Kestrel BioDiscovery

>  <molecular_weight>  (131) 
190.286

>  <clogp>  (131) 
3.743

>  <tpsa>  (131) 
9.23

>  <hbd>  (131) 
0

>  <hba>  (131) 
1

>  <rotatable_bonds>  (131) 
2

>  <heavy_atoms>  (131) 
14

>  <rings>  (131) 
2

>  <pIC50_median>  (131) 
6.39

>  <n_measurements>  (131) 
1.0

>  <murcko_scaffold>  (131) 
c1ccc(C2CCCCC2)cc1

>  <scaffold_id>  (131) 
S004

>  <cluster_id>  (131) 
C012

$$$$
DPC0132
     RDKit          2D

  9  9  0  0  0  0  0  0  0  0999 V2000
    3.7500   -1.2990    0.0000 C   0  0  0  0  0  0  0  0  0  0  0  0
    3.0000    0.0000    0.0000 O   0  0  0  0  0  0  0  0  0  0  0  0
    1.5000    0.0000    0.0000 C   0  0  0  0  0  0  0  0  0  0  0  0
    0.7500   -1.2990    0.0000 C   0  0  0  0  0  0  0  0  0  0  0  0
   -0.7500   -1.2990    0.0000 C   0  0  0  0  0  0  0  0  0  0  0  0
   -1.5000    0.0000    0.0000 C   0  0  0  0  0  0  0  0  0  0  0  0
   -3.0000    0.0000    0.0000 O   0  0  0  0  0  0  0  0  0  0  0  0
   -0.7500    1.2990    0.0000 C   0  0  0  0  0  0  0  0  0  0  0  0
    0.7500    1.2990    0.0000 C   0  0  0  0  0  0  0  0  0  0  0  0
  1  2  1  0
  2  3  1  0
  3  4  1  0
  4  5  2  0
  5  6  1  0
  6  7  1  0
  6  8  2  0
  8  9  1  0
  9  3  2  0
M  END
>  <compound_id>  (132) 
DPC0132

>  <smiles>  (132) 
COc1ccc(O)cc1

>  <patent_id>  (132) 
DEMO-103-A1

>  <assignee>  (132) 
Kestrel BioDiscovery

>  <publication_date>  (132) 
2023-07-13

>  <year>  (132) 
2023

>  <series>  (132) 
phenyl

>  <assay_id>  (132) 
ASSAY-03-01

>  <standard_relation>  (132) 
=

>  <pIC50>  (132) 
6.16

>  <project_note>  (132) 
primary measurement

>  <source_row>  (132) 
132

>  <status>  (132) 
accepted

>  <duplicate_group_size>  (132) 
1

>  <source_rows>  (132) 
132

>  <patent_ids>  (132) 
DEMO-103-A1

>  <assignees>  (132) 
Kestrel BioDiscovery

>  <molecular_weight>  (132) 
124.139

>  <clogp>  (132) 
1.401

>  <tpsa>  (132) 
29.46

>  <hbd>  (132) 
1

>  <hba>  (132) 
2

>  <rotatable_bonds>  (132) 
1

>  <heavy_atoms>  (132) 
9

>  <rings>  (132) 
1

>  <pIC50_median>  (132) 
6.16

>  <n_measurements>  (132) 
1.0

>  <murcko_scaffold>  (132) 
c1ccccc1

>  <scaffold_id>  (132) 
S001

>  <cluster_id>  (132) 
C004

$$$$
DPC0133
     RDKit          2D

 11 11  0  0  0  0  0  0  0  0999 V2000
    3.7500   -1.2990    0.0000 C   0  0  0  0  0  0  0  0  0  0  0  0
    3.0000    0.0000    0.0000 O   0  0  0  0  0  0  0  0  0  0  0  0
    1.5000    0.0000    0.0000 C   0  0  0  0  0  0  0  0  0  0  0  0
    0.7500   -1.2990    0.0000 C   0  0  0  0  0  0  0  0  0  0  0  0
   -0.7500   -1.2990    0.0000 C   0  0  0  0  0  0  0  0  0  0  0  0
   -1.5000    0.0000    0.0000 C   0  0  0  0  0  0  0  0  0  0  0  0
   -3.0000    0.0000    0.0000 C   0  0  0  0  0  0  0  0  0  0  0  0
   -3.7500   -1.2990    0.0000 O   0  0  0  0  0  0  0  0  0  0  0  0
   -3.7500    1.2990    0.0000 O   0  0  0  0  0  0  0  0  0  0  0  0
   -0.7500    1.2990    0.0000 C   0  0  0  0  0  0  0  0  0  0  0  0
    0.7500    1.2990    0.0000 C   0  0  0  0  0  0  0  0  0  0  0  0
  1  2  1  0
  2  3  1  0
  3  4  1  0
  4  5  2  0
  5  6  1  0
  6  7  1  0
  7  8  2  0
  7  9  1  0
  6 10  2  0
 10 11  1  0
 11  3  2  0
M  END
>  <compound_id>  (133) 
DPC0133

>  <smiles>  (133) 
COc1ccc(C(=O)O)cc1

>  <patent_id>  (133) 
DEMO-103-A1

>  <assignee>  (133) 
Kestrel BioDiscovery

>  <publication_date>  (133) 
2023-07-13

>  <year>  (133) 
2023

>  <series>  (133) 
phenyl

>  <assay_id>  (133) 
ASSAY-03-02

>  <standard_relation>  (133) 
=

>  <pIC50>  (133) 
6.1

>  <project_note>  (133) 
primary measurement

>  <source_row>  (133) 
133

>  <status>  (133) 
accepted

>  <duplicate_group_size>  (133) 
1

>  <source_rows>  (133) 
133

>  <patent_ids>  (133) 
DEMO-103-A1

>  <assignees>  (133) 
Kestrel BioDiscovery

>  <molecular_weight>  (133) 
152.149

>  <clogp>  (133) 
1.393

>  <tpsa>  (133) 
46.53

>  <hbd>  (133) 
1

>  <hba>  (133) 
2

>  <rotatable_bonds>  (133) 
2

>  <heavy_atoms>  (133) 
11

>  <rings>  (133) 
1

>  <pIC50_median>  (133) 
6.1

>  <n_measurements>  (133) 
1.0

>  <murcko_scaffold>  (133) 
c1ccccc1

>  <scaffold_id>  (133) 
S001

>  <cluster_id>  (133) 
C004

$$$$
DPC0134
     RDKit          2D

 12 12  0  0  0  0  0  0  0  0999 V2000
    5.2500   -1.2990    0.0000 C   0  0  0  0  0  0  0  0  0  0  0  0
    3.7500   -1.2990    0.0000 C   0  0  0  0  0  0  0  0  0  0  0  0
    3.0000    0.0000    0.0000 O   0  0  0  0  0  0  0  0  0  0  0  0
    1.5000    0.0000    0.0000 C   0  0  0  0  0  0  0  0  0  0  0  0
    0.7500   -1.2990    0.0000 C   0  0  0  0  0  0  0  0  0  0  0  0
   -0.7500   -1.2990    0.0000 C   0  0  0  0  0  0  0  0  0  0  0  0
   -1.5000    0.0000    0.0000 C   0  0  0  0  0  0  0  0  0  0  0  0
   -3.0000    0.0000    0.0000 O   0  0  0  0  0  0  0  0  0  0  0  0
   -3.7500    1.2990    0.0000 C   0  0  0  0  0  0  0  0  0  0  0  0
   -5.2500    1.2990    0.0000 C   0  0  0  0  0  0  0  0  0  0  0  0
   -0.7500    1.2990    0.0000 C   0  0  0  0  0  0  0  0  0  0  0  0
    0.7500    1.2990    0.0000 C   0  0  0  0  0  0  0  0  0  0  0  0
  1  2  1  0
  2  3  1  0
  3  4  1  0
  4  5  1  0
  5  6  2  0
  6  7  1  0
  7  8  1  0
  8  9  1  0
  9 10  1  0
  7 11  2  0
 11 12  1  0
 12  4  2  0
M  END
>  <compound_id>  (134) 
DPC0134

>  <smiles>  (134) 
CCOc1ccc(OCC)cc1

>  <patent_id>  (134) 
DEMO-103-A1

>  <assignee>  (134) 
Kestrel BioDiscovery

>  <publication_date>  (134) 
2023-07-13

>  <year>  (134) 
2023

>  <series>  (134) 
phenyl

>  <assay_id>  (134) 
ASSAY-03-03

>  <standard_relation>  (134) 
=

>  <pIC50>  (134) 
6.13

>  <project_note>  (134) 
primary measurement

>  <source_row>  (134) 
134

>  <status>  (134) 
accepted

>  <duplicate_group_size>  (134) 
1

>  <source_rows>  (134) 
134

>  <patent_ids>  (134) 
DEMO-103-A1

>  <assignees>  (134) 
Kestrel BioDiscovery

>  <molecular_weight>  (134) 
166.22

>  <clogp>  (134) 
2.484

>  <tpsa>  (134) 
18.46

>  <hbd>  (134) 
0

>  <hba>  (134) 
2

>  <rotatable_bonds>  (134) 
4

>  <heavy_atoms>  (134) 
12

>  <rings>  (134) 
1

>  <pIC50_median>  (134) 
6.13

>  <n_measurements>  (134) 
1.0

>  <murcko_scaffold>  (134) 
c1ccccc1

>  <scaffold_id>  (134) 
S001

>  <cluster_id>  (134) 
C001

$$$$
DPC0135
     RDKit          2D

 10 10  0  0  0  0  0  0  0  0999 V2000
    5.2500   -1.2990    0.0000 C   0  0  0  0  0  0  0  0  0  0  0  0
    3.7500   -1.2990    0.0000 C   0  0  0  0  0  0  0  0  0  0  0  0
    3.0000    0.0000    0.0000 O   0  0  0  0  0  0  0  0  0  0  0  0
    1.5000    0.0000    0.0000 C   0  0  0  0  0  0  0  0  0  0  0  0
    0.7500   -1.2990    0.0000 C   0  0  0  0  0  0  0  0  0  0  0  0
   -0.7500   -1.2990    0.0000 C   0  0  0  0  0  0  0  0  0  0  0  0
   -1.5000    0.0000    0.0000 C   0  0  0  0  0  0  0  0  0  0  0  0
   -3.0000    0.0000    0.0000 N   0  0  0  0  0  0  0  0  0  0  0  0
   -0.7500    1.2990    0.0000 C   0  0  0  0  0  0  0  0  0  0  0  0
    0.7500    1.2990    0.0000 C   0  0  0  0  0  0  0  0  0  0  0  0
  1  2  1  0
  2  3  1  0
  3  4  1  0
  4  5  1  0
  5  6  2  0
  6  7  1  0
  7  8  1  0
  7  9  2  0
  9 10  1  0
 10  4  2  0
M  END
>  <compound_id>  (135) 
DPC0135

>  <smiles>  (135) 
CCOc1ccc(N)cc1

>  <patent_id>  (135) 
DEMO-103-A1

>  <assignee>  (135) 
Kestrel BioDiscovery

>  <publication_date>  (135) 
2023-07-13

>  <year>  (135) 
2023

>  <series>  (135) 
phenyl

>  <assay_id>  (135) 
ASSAY-03-04

>  <standard_relation>  (135) 
=

>  <pIC50>  (135) 
5.92

>  <project_note>  (135) 
primary measurement

>  <source_row>  (135) 
135

>  <status>  (135) 
accepted

>  <duplicate_group_size>  (135) 
1

>  <source_rows>  (135) 
135

>  <patent_ids>  (135) 
DEMO-103-A1

>  <assignees>  (135) 
Kestrel BioDiscovery

>  <molecular_weight>  (135) 
137.182

>  <clogp>  (135) 
1.667

>  <tpsa>  (135) 
35.25

>  <hbd>  (135) 
1

>  <hba>  (135) 
2

>  <rotatable_bonds>  (135) 
2

>  <heavy_atoms>  (135) 
10

>  <rings>  (135) 
1

>  <pIC50_median>  (135) 
5.92

>  <n_measurements>  (135) 
1.0

>  <murcko_scaffold>  (135) 
c1ccccc1

>  <scaffold_id>  (135) 
S001

>  <cluster_id>  (135) 
C001

$$$$
DPC0136
     RDKit          2D

 11 11  0  0  0  0  0  0  0  0999 V2000
    5.2500   -1.2990    0.0000 C   0  0  0  0  0  0  0  0  0  0  0  0
    3.7500   -1.2990    0.0000 C   0  0  0  0  0  0  0  0  0  0  0  0
    3.0000    0.0000    0.0000 O   0  0  0  0  0  0  0  0  0  0  0  0
    1.5000    0.0000    0.0000 C   0  0  0  0  0  0  0  0  0  0  0  0
    0.7500   -1.2990    0.0000 C   0  0  0  0  0  0  0  0  0  0  0  0
   -0.7500   -1.2990    0.0000 C   0  0  0  0  0  0  0  0  0  0  0  0
   -1.5000    0.0000    0.0000 C   0  0  0  0  0  0  0  0  0  0  0  0
   -3.0000    0.0000    0.0000 N   0  0  0  0  0  0  0  0  0  0  0  0
   -3.7500    1.2990    0.0000 C   0  0  0  0  0  0  0  0  0  0  0  0
   -0.7500    1.2990    0.0000 C   0  0  0  0  0  0  0  0  0  0  0  0
    0.7500    1.2990    0.0000 C   0  0  0  0  0  0  0  0  0  0  0  0
  1  2  1  0
  2  3  1  0
  3  4  1  0
  4  5  1  0
  5  6  2  0
  6  7  1  0
  7  8  1  0
  8  9  1  0
  7 10  2  0
 10 11  1  0
 11  4  2  0
M  END
>  <compound_id>  (136) 
DPC0136

>  <smiles>  (136) 
CCOc1ccc(NC)cc1

>  <patent_id>  (136) 
DEMO-103-A1

>  <assignee>  (136) 
Kestrel BioDiscovery

>  <publication_date>  (136) 
2023-07-13

>  <year>  (136) 
2023

>  <series>  (136) 
phenyl

>  <assay_id>  (136) 
ASSAY-03-05

>  <standard_relation>  (136) 
=

>  <pIC50>  (136) 
5.98

>  <project_note>  (136) 
primary measurement

>  <source_row>  (136) 
136

>  <status>  (136) 
accepted

>  <duplicate_group_size>  (136) 
1

>  <source_rows>  (136) 
136

>  <patent_ids>  (136) 
DEMO-103-A1

>  <assignees>  (136) 
Kestrel BioDiscovery

>  <molecular_weight>  (136) 
151.209

>  <clogp>  (136) 
2.127

>  <tpsa>  (136) 
21.26

>  <hbd>  (136) 
1

>  <hba>  (136) 
2

>  <rotatable_bonds>  (136) 
3

>  <heavy_atoms>  (136) 
11

>  <rings>  (136) 
1

>  <pIC50_median>  (136) 
5.98

>  <n_measurements>  (136) 
1.0

>  <murcko_scaffold>  (136) 
c1ccccc1

>  <scaffold_id>  (136) 
S001

>  <cluster_id>  (136) 
C001

$$$$
DPC0137
     RDKit          2D

 12 12  0  0  0  0  0  0  0  0999 V2000
    5.2500   -1.2990    0.0000 C   0  0  0  0  0  0  0  0  0  0  0  0
    3.7500   -1.2990    0.0000 C   0  0  0  0  0  0  0  0  0  0  0  0
    3.0000    0.0000    0.0000 O   0  0  0  0  0  0  0  0  0  0  0  0
    1.5000    0.0000    0.0000 C   0  0  0  0  0  0  0  0  0  0  0  0
    0.7500   -1.2990    0.0000 C   0  0  0  0  0  0  0  0  0  0  0  0
   -0.7500   -1.2990    0.0000 C   0  0  0  0  0  0  0  0  0  0  0  0
   -1.5000    0.0000    0.0000 C   0  0  0  0  0  0  0  0  0  0  0  0
   -3.0000    0.0000    0.0000 N   0  0  0  0  0  0  0  0  0  0  0  0
   -3.7500    1.2990    0.0000 C   0  0  0  0  0  0  0  0  0  0  0  0
   -3.7500   -1.2990    0.0000 C   0  0  0  0  0  0  0  0  0  0  0  0
   -0.7500    1.2990    0.0000 C   0  0  0  0  0  0  0  0  0  0  0  0
    0.7500    1.2990    0.0000 C   0  0  0  0  0  0  0  0  0  0  0  0
  1  2  1  0
  2  3  1  0
  3  4  1  0
  4  5  1  0
  5  6  2  0
  6  7  1  0
  7  8  1  0
  8  9  1  0
  8 10  1  0
  7 11  2  0
 11 12  1  0
 12  4  2  0
M  END
>  <compound_id>  (137) 
DPC0137

>  <smiles>  (137) 
CCOc1ccc(N(C)C)cc1

>  <patent_id>  (137) 
DEMO-103-A1

>  <assignee>  (137) 
Kestrel BioDiscovery

>  <publication_date>  (137) 
2023-07-13

>  <year>  (137) 
2023

>  <series>  (137) 
phenyl

>  <assay_id>  (137) 
ASSAY-03-06

>  <standard_relation>  (137) 
=

>  <pIC50>  (137) 
6.11

>  <project_note>  (137) 
primary measurement

>  <source_row>  (137) 
137

>  <status>  (137) 
accepted

>  <duplicate_group_size>  (137) 
1

>  <source_rows>  (137) 
137

>  <patent_ids>  (137) 
DEMO-103-A1

>  <assignees>  (137) 
Kestrel BioDiscovery

>  <molecular_weight>  (137) 
165.236

>  <clogp>  (137) 
2.151

>  <tpsa>  (137) 
12.47

>  <hbd>  (137) 
0

>  <hba>  (137) 
2

>  <rotatable_bonds>  (137) 
3

>  <heavy_atoms>  (137) 
12

>  <rings>  (137) 
1

>  <pIC50_median>  (137) 
6.11

>  <n_measurements>  (137) 
1.0

>  <murcko_scaffold>  (137) 
c1ccccc1

>  <scaffold_id>  (137) 
S001

>  <cluster_id>  (137) 
C001

$$$$
DPC0138
     RDKit          2D

 11 11  0  0  0  0  0  0  0  0999 V2000
    5.2500   -1.2990    0.0000 C   0  0  0  0  0  0  0  0  0  0  0  0
    3.7500   -1.2990    0.0000 C   0  0  0  0  0  0  0  0  0  0  0  0
    3.0000    0.0000    0.0000 O   0  0  0  0  0  0  0  0  0  0  0  0
    1.5000    0.0000    0.0000 C   0  0  0  0  0  0  0  0  0  0  0  0
    0.7500   -1.2990    0.0000 C   0  0  0  0  0  0  0  0  0  0  0  0
   -0.7500   -1.2990    0.0000 C   0  0  0  0  0  0  0  0  0  0  0  0
   -1.5000    0.0000    0.0000 C   0  0  0  0  0  0  0  0  0  0  0  0
   -3.0000    0.0000    0.0000 C   0  0  0  0  0  0  0  0  0  0  0  0
   -4.5000    0.0000    0.0000 N   0  0  0  0  0  0  0  0  0  0  0  0
   -0.7500    1.2990    0.0000 C   0  0  0  0  0  0  0  0  0  0  0  0
    0.7500    1.2990    0.0000 C   0  0  0  0  0  0  0  0  0  0  0  0
  1  2  1  0
  2  3  1  0
  3  4  1  0
  4  5  1  0
  5  6  2  0
  6  7  1  0
  7  8  1  0
  8  9  3  0
  7 10  2  0
 10 11  1  0
 11  4  2  0
M  END
>  <compound_id>  (138) 
DPC0138

>  <smiles>  (138) 
CCOc1ccc(C#N)cc1

>  <patent_id>  (138) 
DEMO-103-A1

>  <assignee>  (138) 
Kestrel BioDiscovery

>  <publication_date>  (138) 
2023-07-13

>  <year>  (138) 
2023

>  <series>  (138) 
phenyl

>  <assay_id>  (138) 
ASSAY-03-07

>  <standard_relation>  (138) 
<

>  <pIC50>  (138) 
6.29

>  <project_note>  (138) 
primary measurement

>  <source_row>  (138) 
138

>  <status>  (138) 
accepted

>  <duplicate_group_size>  (138) 
1

>  <source_rows>  (138) 
138

>  <patent_ids>  (138) 
DEMO-103-A1

>  <assignees>  (138) 
Kestrel BioDiscovery

>  <molecular_weight>  (138) 
147.177

>  <clogp>  (138) 
1.957

>  <tpsa>  (138) 
33.02

>  <hbd>  (138) 
0

>  <hba>  (138) 
2

>  <rotatable_bonds>  (138) 
2

>  <heavy_atoms>  (138) 
11

>  <rings>  (138) 
1

>  <murcko_scaffold>  (138) 
c1ccccc1

>  <scaffold_id>  (138) 
S001

>  <cluster_id>  (138) 
C001

$$$$
DPC0139
     RDKit          2D

 13 13  0  0  0  0  0  0  0  0999 V2000
    5.2500   -1.2990    0.0000 C   0  0  0  0  0  0  0  0  0  0  0  0
    3.7500   -1.2990    0.0000 C   0  0  0  0  0  0  0  0  0  0  0  0
    3.0000    0.0000    0.0000 O   0  0  0  0  0  0  0  0  0  0  0  0
    1.5000    0.0000    0.0000 C   0  0  0  0  0  0  0  0  0  0  0  0
    0.7500   -1.2990    0.0000 C   0  0  0  0  0  0  0  0  0  0  0  0
   -0.7500   -1.2990    0.0000 C   0  0  0  0  0  0  0  0  0  0  0  0
   -1.5000    0.0000    0.0000 C   0  0  0  0  0  0  0  0  0  0  0  0
   -3.0000    0.0000    0.0000 C   0  0  0  0  0  0  0  0  0  0  0  0
   -4.5000    0.0000    0.0000 F   0  0  0  0  0  0  0  0  0  0  0  0
   -3.0000    1.5000    0.0000 F   0  0  0  0  0  0  0  0  0  0  0  0
   -3.0000   -1.5000    0.0000 F   0  0  0  0  0  0  0  0  0  0  0  0
   -0.7500    1.2990    0.0000 C   0  0  0  0  0  0  0  0  0  0  0  0
    0.7500    1.2990    0.0000 C   0  0  0  0  0  0  0  0  0  0  0  0
  1  2  1  0
  2  3  1  0
  3  4  1  0
  4  5  1  0
  5  6  2  0
  6  7  1  0
  7  8  1  0
  8  9  1  0
  8 10  1  0
  8 11  1  0
  7 12  2  0
 12 13  1  0
 13  4  2  0
M  END
>  <compound_id>  (139) 
DPC0139

>  <smiles>  (139) 
CCOc1ccc(C(F)(F)F)cc1

>  <patent_id>  (139) 
DEMO-103-A1

>  <assignee>  (139) 
Kestrel BioDiscovery

>  <publication_date>  (139) 
2023-07-13

>  <year>  (139) 
2023

>  <series>  (139) 
phenyl

>  <assay_id>  (139) 
ASSAY-03-08

>  <standard_relation>  (139) 
=

>  <pIC50>  (139) 
6.32

>  <project_note>  (139) 
primary measurement

>  <source_row>  (139) 
139

>  <status>  (139) 
accepted

>  <duplicate_group_size>  (139) 
1

>  <source_rows>  (139) 
139

>  <patent_ids>  (139) 
DEMO-103-A1

>  <assignees>  (139) 
Kestrel BioDiscovery

>  <molecular_weight>  (139) 
190.164

>  <clogp>  (139) 
3.104

>  <tpsa>  (139) 
9.23

>  <hbd>  (139) 
0

>  <hba>  (139) 
1

>  <rotatable_bonds>  (139) 
2

>  <heavy_atoms>  (139) 
13

>  <rings>  (139) 
1

>  <pIC50_median>  (139) 
6.32

>  <n_measurements>  (139) 
1.0

>  <murcko_scaffold>  (139) 
c1ccccc1

>  <scaffold_id>  (139) 
S001

>  <cluster_id>  (139) 
C001

$$$$
DPC0140
     RDKit          2D

 12 12  0  0  0  0  0  0  0  0999 V2000
    5.2500   -1.2990    0.0000 C   0  0  0  0  0  0  0  0  0  0  0  0
    3.7500   -1.2990    0.0000 C   0  0  0  0  0  0  0  0  0  0  0  0
    3.0000    0.0000    0.0000 O   0  0  0  0  0  0  0  0  0  0  0  0
    1.5000    0.0000    0.0000 C   0  0  0  0  0  0  0  0  0  0  0  0
    0.7500   -1.2990    0.0000 C   0  0  0  0  0  0  0  0  0  0  0  0
   -0.7500   -1.2990    0.0000 C   0  0  0  0  0  0  0  0  0  0  0  0
   -1.5000    0.0000    0.0000 C   0  0  0  0  0  0  0  0  0  0  0  0
   -3.0000    0.0000    0.0000 C   0  0  0  0  0  0  0  0  0  0  0  0
   -3.7500    1.2990    0.0000 N   0  0  0  0  0  0  0  0  0  0  0  0
   -3.7500   -1.2990    0.0000 O   0  0  0  0  0  0  0  0  0  0  0  0
   -0.7500    1.2990    0.0000 C   0  0  0  0  0  0  0  0  0  0  0  0
    0.7500    1.2990    0.0000 C   0  0  0  0  0  0  0  0  0  0  0  0
  1  2  1  0
  2  3  1  0
  3  4  1  0
  4  5  1  0
  5  6  2  0
  6  7  1  0
  7  8  1  0
  8  9  1  0
  8 10  2  0
  7 11  2  0
 11 12  1  0
 12  4  2  0
M  END
>  <compound_id>  (140) 
DPC0140

>  <smiles>  (140) 
CCOc1ccc(C(N)=O)cc1

>  <patent_id>  (140) 
DEMO-103-A1

>  <assignee>  (140) 
Kestrel BioDiscovery

>  <publication_date>  (140) 
2023-07-13

>  <year>  (140) 
2023

>  <series>  (140) 
phenyl

>  <assay_id>  (140) 
ASSAY-03-09

>  <standard_relation>  (140) 
=

>  <pIC50>  (140) 
6.29

>  <project_note>  (140) 
primary measurement

>  <source_row>  (140) 
140

>  <status>  (140) 
accepted

>  <duplicate_group_size>  (140) 
1

>  <source_rows>  (140) 
140

>  <patent_ids>  (140) 
DEMO-103-A1

>  <assignees>  (140) 
Kestrel BioDiscovery

>  <molecular_weight>  (140) 
165.192

>  <clogp>  (140) 
1.184

>  <tpsa>  (140) 
52.32

>  <hbd>  (140) 
1

>  <hba>  (140) 
2

>  <rotatable_bonds>  (140) 
3

>  <heavy_atoms>  (140) 
12

>  <rings>  (140) 
1

>  <pIC50_median>  (140) 
6.29

>  <n_measurements>  (140) 
1.0

>  <murcko_scaffold>  (140) 
c1ccccc1

>  <scaffold_id>  (140) 
S001

>  <cluster_id>  (140) 
C001

$$$$
DPC0141
     RDKit          2D

 13 13  0  0  0  0  0  0  0  0999 V2000
    5.2500   -1.2990    0.0000 C   0  0  0  0  0  0  0  0  0  0  0  0
    3.7500   -1.2990    0.0000 C   0  0  0  0  0  0  0  0  0  0  0  0
    3.0000    0.0000    0.0000 O   0  0  0  0  0  0  0  0  0  0  0  0
    1.5000    0.0000    0.0000 C   0  0  0  0  0  0  0  0  0  0  0  0
    0.7500   -1.2990    0.0000 C   0  0  0  0  0  0  0  0  0  0  0  0
   -0.7500   -1.2990    0.0000 C   0  0  0  0  0  0  0  0  0  0  0  0
   -1.5000    0.0000    0.0000 C   0  0  0  0  0  0  0  0  0  0  0  0
   -3.0000    0.0000    0.0000 C   0  0  0  0  0  0  0  0  0  0  0  0
   -3.7500   -1.2990    0.0000 O   0  0  0  0  0  0  0  0  0  0  0  0
   -3.7500    1.2990    0.0000 N   0  0  0  0  0  0  0  0  0  0  0  0
   -5.2500    1.2990    0.0000 C   0  0  0  0  0  0  0  0  0  0  0  0
   -0.7500    1.2990    0.0000 C   0  0  0  0  0  0  0  0  0  0  0  0
    0.7500    1.2990    0.0000 C   0  0  0  0  0  0  0  0  0  0  0  0
  1  2  1  0
  2  3  1  0
  3  4  1  0
  4  5  1  0
  5  6  2  0
  6  7  1  0
  7  8  1  0
  8  9  2  0
  8 10  1  0
 10 11  1  0
  7 12  2  0
 12 13  1  0
 13  4  2  0
M  END
>  <compound_id>  (141) 
DPC0141

>  <smiles>  (141) 
CCOc1ccc(C(=O)NC)cc1

>  <patent_id>  (141) 
DEMO-103-A1

>  <assignee>  (141) 
Kestrel BioDiscovery

>  <publication_date>  (141) 
2023-07-13

>  <year>  (141) 
2023

>  <series>  (141) 
phenyl

>  <assay_id>  (141) 
ASSAY-03-10

>  <standard_relation>  (141) 
=

>  <pIC50>  (141) 
6.31

>  <project_note>  (141) 
primary measurement

>  <source_row>  (141) 
141

>  <status>  (141) 
accepted

>  <duplicate_group_size>  (141) 
1

>  <source_rows>  (141) 
141

>  <patent_ids>  (141) 
DEMO-103-A1

>  <assignees>  (141) 
Kestrel BioDiscovery

>  <molecular_weight>  (141) 
179.219

>  <clogp>  (141) 
1.445

>  <tpsa>  (141) 
38.33

>  <hbd>  (141) 
1

>  <hba>  (141) 
2

>  <rotatable_bonds>  (141) 
3

>  <heavy_atoms>  (141) 
13

>  <rings>  (141) 
1

>  <pIC50_median>  (141) 
6.31

>  <n_measurements>  (141) 
1.0

>  <murcko_scaffold>  (141) 
c1ccccc1

>  <scaffold_id>  (141) 
S001

>  <cluster_id>  (141) 
C021

$$$$
DPC0142
     RDKit          2D

 13 13  0  0  0  0  0  0  0  0999 V2000
    5.2500   -1.2990    0.0000 C   0  0  0  0  0  0  0  0  0  0  0  0
    3.7500   -1.2990    0.0000 C   0  0  0  0  0  0  0  0  0  0  0  0
    3.0000    0.0000    0.0000 O   0  0  0  0  0  0  0  0  0  0  0  0
    1.5000    0.0000    0.0000 C   0  0  0  0  0  0  0  0  0  0  0  0
    0.7500   -1.2990    0.0000 C   0  0  0  0  0  0  0  0  0  0  0  0
   -0.7500   -1.2990    0.0000 C   0  0  0  0  0  0  0  0  0  0  0  0
   -1.5000    0.0000    0.0000 C   0  0  0  0  0  0  0  0  0  0  0  0
   -3.0000    0.0000    0.0000 S   0  0  0  0  0  0  0  0  0  0  0  0
   -4.5000    0.0000    0.0000 N   0  0  0  0  0  0  0  0  0  0  0  0
   -3.0000    1.5000    0.0000 O   0  0  0  0  0  0  0  0  0  0  0  0
   -3.0000   -1.5000    0.0000 O   0  0  0  0  0  0  0  0  0  0  0  0
   -0.7500    1.2990    0.0000 C   0  0  0  0  0  0  0  0  0  0  0  0
    0.7500    1.2990    0.0000 C   0  0  0  0  0  0  0  0  0  0  0  0
  1  2  1  0
  2  3  1  0
  3  4  1  0
  4  5  1  0
  5  6  2  0
  6  7  1  0
  7  8  1  0
  8  9  1  0
  8 10  2  0
  8 11  2  0
  7 12  2  0
 12 13  1  0
 13  4  2  0
M  END
>  <compound_id>  (142) 
DPC0142

>  <smiles>  (142) 
CCOc1ccc(S(N)(=O)=O)cc1

>  <patent_id>  (142) 
DEMO-103-A1

>  <assignee>  (142) 
Kestrel BioDiscovery

>  <publication_date>  (142) 
2023-07-13

>  <year>  (142) 
2023

>  <series>  (142) 
phenyl

>  <assay_id>  (142) 
ASSAY-03-11

>  <standard_relation>  (142) 
=

>  <pIC50>  (142) 
6.09

>  <project_note>  (142) 
primary measurement

>  <source_row>  (142) 
142

>  <status>  (142) 
accepted

>  <duplicate_group_size>  (142) 
1

>  <source_rows>  (142) 
142

>  <patent_ids>  (142) 
DEMO-103-A1

>  <assignees>  (142) 
Kestrel BioDiscovery

>  <molecular_weight>  (142) 
201.247

>  <clogp>  (142) 
0.733

>  <tpsa>  (142) 
69.39

>  <hbd>  (142) 
1

>  <hba>  (142) 
3

>  <rotatable_bonds>  (142) 
3

>  <heavy_atoms>  (142) 
13

>  <rings>  (142) 
1

>  <pIC50_median>  (142) 
6.09

>  <n_measurements>  (142) 
1.0

>  <murcko_scaffold>  (142) 
c1ccccc1

>  <scaffold_id>  (142) 
S001

>  <cluster_id>  (142) 
C001

$$$$
DPC0143
     RDKit          2D

 14 14  0  0  0  0  0  0  0  0999 V2000
    5.2500   -1.2990    0.0000 C   0  0  0  0  0  0  0  0  0  0  0  0
    3.7500   -1.2990    0.0000 C   0  0  0  0  0  0  0  0  0  0  0  0
    3.0000    0.0000    0.0000 O   0  0  0  0  0  0  0  0  0  0  0  0
    1.5000    0.0000    0.0000 C   0  0  0  0  0  0  0  0  0  0  0  0
    0.7500   -1.2990    0.0000 C   0  0  0  0  0  0  0  0  0  0  0  0
   -0.7500   -1.2990    0.0000 C   0  0  0  0  0  0  0  0  0  0  0  0
   -1.5000    0.0000    0.0000 C   0  0  0  0  0  0  0  0  0  0  0  0
   -3.0000    0.0000    0.0000 O   0  0  0  0  0  0  0  0  0  0  0  0
   -3.7500    1.2990    0.0000 C   0  0  0  0  0  0  0  0  0  0  0  0
   -4.5000    2.5981    0.0000 F   0  0  0  0  0  0  0  0  0  0  0  0
   -5.0490    0.5490    0.0000 F   0  0  0  0  0  0  0  0  0  0  0  0
   -2.4510    2.0490    0.0000 F   0  0  0  0  0  0  0  0  0  0  0  0
   -0.7500    1.2990    0.0000 C   0  0  0  0  0  0  0  0  0  0  0  0
    0.7500    1.2990    0.0000 C   0  0  0  0  0  0  0  0  0  0  0  0
  1  2  1  0
  2  3  1  0
  3  4  1  0
  4  5  1  0
  5  6  2  0
  6  7  1  0
  7  8  1  0
  8  9  1  0
  9 10  1  0
  9 11  1  0
  9 12  1  0
  7 13  2  0
 13 14  1  0
 14  4  2  0
M  END
>  <compound_id>  (143) 
DPC0143

>  <smiles>  (143) 
CCOc1ccc(OC(F)(F)F)cc1

>  <patent_id>  (143) 
DEMO-103-A1

>  <assignee>  (143) 
Kestrel BioDiscovery

>  <publication_date>  (143) 
2023-07-13

>  <year>  (143) 
2023

>  <series>  (143) 
phenyl

>  <assay_id>  (143) 
ASSAY-03-12

>  <standard_relation>  (143) 
=

>  <pIC50>  (143) 
6.0

>  <project_note>  (143) 
primary measurement

>  <source_row>  (143) 
143

>  <status>  (143) 
accepted

>  <duplicate_group_size>  (143) 
1

>  <source_rows>  (143) 
143

>  <patent_ids>  (143) 
DEMO-103-A1

>  <assignees>  (143) 
Kestrel BioDiscovery

>  <molecular_weight>  (143) 
206.163

>  <clogp>  (143) 
2.984

>  <tpsa>  (143) 
18.46

>  <hbd>  (143) 
0

>  <hba>  (143) 
2

>  <rotatable_bonds>  (143) 
3

>  <heavy_atoms>  (143) 
14

>  <rings>  (143) 
1

>  <pIC50_median>  (143) 
6.0

>  <n_measurements>  (143) 
1.0

>  <murcko_scaffold>  (143) 
c1ccccc1

>  <scaffold_id>  (143) 
S001

>  <cluster_id>  (143) 
C001

$$$$
DPC0144
     RDKit          2D

 15 16  0  0  0  0  0  0  0  0999 V2000
    5.2500   -1.2990    0.0000 C   0  0  0  0  0  0  0  0  0  0  0  0
    3.7500   -1.2990    0.0000 C   0  0  0  0  0  0  0  0  0  0  0  0
    3.0000    0.0000    0.0000 O   0  0  0  0  0  0  0  0  0  0  0  0
    1.5000    0.0000    0.0000 C   0  0  0  0  0  0  0  0  0  0  0  0
    0.7500   -1.2990    0.0000 C   0  0  0  0  0  0  0  0  0  0  0  0
   -0.7500   -1.2990    0.0000 C   0  0  0  0  0  0  0  0  0  0  0  0
   -1.5000    0.0000    0.0000 C   0  0  0  0  0  0  0  0  0  0  0  0
   -3.0000    0.0000    0.0000 N   0  0  0  0  0  0  0  0  0  0  0  0
   -3.7500    1.2990    0.0000 C   0  0  0  0  0  0  0  0  0  0  0  0
   -5.2500    1.2990    0.0000 C   0  0  0  0  0  0  0  0  0  0  0  0
   -6.0000    0.0000    0.0000 O   0  0  0  0  0  0  0  0  0  0  0  0
   -5.2500   -1.2990    0.0000 C   0  0  0  0  0  0  0  0  0  0  0  0
   -3.7500   -1.2990    0.0000 C   0  0  0  0  0  0  0  0  0  0  0  0
   -0.7500    1.2990    0.0000 C   0  0  0  0  0  0  0  0  0  0  0  0
    0.7500    1.2990    0.0000 C   0  0  0  0  0  0  0  0  0  0  0  0
  1  2  1  0
  2  3  1  0
  3  4  1  0
  4  5  1  0
  5  6  2  0
  6  7  1  0
  7  8  1  0
  8  9  1  0
  9 10  1  0
 10 11  1  0
 11 12  1  0
 12 13  1  0
  7 14  2  0
 14 15  1  0
 15  4  2  0
 13  8  1  0
M  END
>  <compound_id>  (144) 
DPC0144

>  <smiles>  (144) 
CCOc1ccc(N2CCOCC2)cc1

>  <patent_id>  (144) 
DEMO-103-A1

>  <assignee>  (144) 
Kestrel BioDiscovery

>  <publication_date>  (144) 
2023-07-13

>  <year>  (144) 
2023

>  <series>  (144) 
phenyl

>  <assay_id>  (144) 
ASSAY-03-01

>  <standard_relation>  (144) 
=

>  <pIC50>  (144) 
6.17

>  <project_note>  (144) 
primary measurement

>  <source_row>  (144) 
144

>  <status>  (144) 
accepted

>  <duplicate_group_size>  (144) 
1

>  <source_rows>  (144) 
144

>  <patent_ids>  (144) 
DEMO-103-A1

>  <assignees>  (144) 
Kestrel BioDiscovery

>  <molecular_weight>  (144) 
207.273

>  <clogp>  (144) 
1.922

>  <tpsa>  (144) 
21.7

>  <hbd>  (144) 
0

>  <hba>  (144) 
3

>  <rotatable_bonds>  (144) 
3

>  <heavy_atoms>  (144) 
15

>  <rings>  (144) 
2

>  <pIC50_median>  (144) 
6.17

>  <n_measurements>  (144) 
1.0

>  <murcko_scaffold>  (144) 
c1ccc(N2CCOCC2)cc1

>  <scaffold_id>  (144) 
S002

>  <cluster_id>  (144) 
C024

$$$$
DPC0145
     RDKit          2D

 12 13  0  0  0  0  0  0  0  0999 V2000
    5.2500   -1.2990    0.0000 C   0  0  0  0  0  0  0  0  0  0  0  0
    3.7500   -1.2990    0.0000 C   0  0  0  0  0  0  0  0  0  0  0  0
    3.0000    0.0000    0.0000 O   0  0  0  0  0  0  0  0  0  0  0  0
    1.5000    0.0000    0.0000 C   0  0  0  0  0  0  0  0  0  0  0  0
    0.7500   -1.2990    0.0000 C   0  0  0  0  0  0  0  0  0  0  0  0
   -0.7500   -1.2990    0.0000 C   0  0  0  0  0  0  0  0  0  0  0  0
   -1.5000    0.0000    0.0000 C   0  0  0  0  0  0  0  0  0  0  0  0
   -3.0000    0.0000    0.0000 C   0  0  0  0  0  0  0  0  0  0  0  0
   -4.2990   -0.7500    0.0000 C   0  0  0  0  0  0  0  0  0  0  0  0
   -4.2990    0.7500    0.0000 C   0  0  0  0  0  0  0  0  0  0  0  0
   -0.7500    1.2990    0.0000 C   0  0  0  0  0  0  0  0  0  0  0  0
    0.7500    1.2990    0.0000 C   0  0  0  0  0  0  0  0  0  0  0  0
  1  2  1  0
  2  3  1  0
  3  4  1  0
  4  5  1  0
  5  6  2  0
  6  7  1  0
  7  8  1  0
  8  9  1  0
  9 10  1  0
  7 11  2  0
 11 12  1  0
 12  4  2  0
 10  8  1  0
M  END
>  <compound_id>  (145) 
DPC0145

>  <smiles>  (145) 
CCOc1ccc(C2CC2)cc1

>  <patent_id>  (145) 
DEMO-103-A1

>  <assignee>  (145) 
Kestrel BioDiscovery

>  <publication_date>  (145) 
2023-07-13

>  <year>  (145) 
2023

>  <series>  (145) 
phenyl

>  <assay_id>  (145) 
ASSAY-03-02

>  <standard_relation>  (145) 
=

>  <pIC50>  (145) 
5.92

>  <project_note>  (145) 
primary measurement

>  <source_row>  (145) 
145

>  <status>  (145) 
accepted

>  <duplicate_group_size>  (145) 
1

>  <source_rows>  (145) 
145

>  <patent_ids>  (145) 
DEMO-103-A1

>  <assignees>  (145) 
Kestrel BioDiscovery

>  <molecular_weight>  (145) 
162.232

>  <clogp>  (145) 
2.963

>  <tpsa>  (145) 
9.23

>  <hbd>  (145) 
0

>  <hba>  (145) 
1

>  <rotatable_bonds>  (145) 
3

>  <heavy_atoms>  (145) 
12

>  <rings>  (145) 
2

>  <pIC50_median>  (145) 
5.92

>  <n_measurements>  (145) 
1.0

>  <murcko_scaffold>  (145) 
c1ccc(C2CC2)cc1

>  <scaffold_id>  (145) 
S003

>  <cluster_id>  (145) 
C001

$$$$
DPC0146
     RDKit          2D

 15 16  0  0  0  0  0  0  0  0999 V2000
    5.2500   -1.2990    0.0000 C   0  0  0  0  0  0  0  0  0  0  0  0
    3.7500   -1.2990    0.0000 C   0  0  0  0  0  0  0  0  0  0  0  0
    3.0000    0.0000    0.0000 O   0  0  0  0  0  0  0  0  0  0  0  0
    1.5000    0.0000    0.0000 C   0  0  0  0  0  0  0  0  0  0  0  0
    0.7500   -1.2990    0.0000 C   0  0  0  0  0  0  0  0  0  0  0  0
   -0.7500   -1.2990    0.0000 C   0  0  0  0  0  0  0  0  0  0  0  0
   -1.5000    0.0000    0.0000 C   0  0  0  0  0  0  0  0  0  0  0  0
   -3.0000    0.0000    0.0000 C   0  0  0  0  0  0  0  0  0  0  0  0
   -3.7500    1.2990    0.0000 C   0  0  0  0  0  0  0  0  0  0  0  0
   -5.2500    1.2990    0.0000 C   0  0  0  0  0  0  0  0  0  0  0  0
   -6.0000    0.0000    0.0000 C   0  0  0  0  0  0  0  0  0  0  0  0
   -5.2500   -1.2990    0.0000 C   0  0  0  0  0  0  0  0  0  0  0  0
   -3.7500   -1.2990    0.0000 C   0  0  0  0  0  0  0  0  0  0  0  0
   -0.7500    1.2990    0.0000 C   0  0  0  0  0  0  0  0  0  0  0  0
    0.7500    1.2990    0.0000 C   0  0  0  0  0  0  0  0  0  0  0  0
  1  2  1  0
  2  3  1  0
  3  4  1  0
  4  5  1  0
  5  6  2  0
  6  7  1  0
  7  8  1  0
  8  9  1  0
  9 10  1  0
 10 11  1  0
 11 12  1  0
 12 13  1  0
  7 14  2  0
 14 15  1  0
 15  4  2  0
 13  8  1  0
M  END
>  <compound_id>  (146) 
DPC0146

>  <smiles>  (146) 
CCOc1ccc(C2CCCCC2)cc1

>  <patent_id>  (146) 
DEMO-103-A1

>  <assignee>  (146) 
Kestrel BioDiscovery

>  <publication_date>  (146) 
2023-07-13

>  <year>  (146) 
2023

>  <series>  (146) 
phenyl

>  <assay_id>  (146) 
ASSAY-03-03

>  <standard_relation>  (146) 
=

>  <pIC50>  (146) 
6.16

>  <project_note>  (146) 
primary measurement

>  <source_row>  (146) 
146

>  <status>  (146) 
accepted

>  <duplicate_group_size>  (146) 
1

>  <source_rows>  (146) 
146

>  <patent_ids>  (146) 
DEMO-103-A1

>  <assignees>  (146) 
Kestrel BioDiscovery

>  <molecular_weight>  (146) 
204.313

>  <clogp>  (146) 
4.133

>  <tpsa>  (146) 
9.23

>  <hbd>  (146) 
0

>  <hba>  (146) 
1

>  <rotatable_bonds>  (146) 
3

>  <heavy_atoms>  (146) 
15

>  <rings>  (146) 
2

>  <pIC50_median>  (146) 
6.16

>  <n_measurements>  (146) 
1.0

>  <murcko_scaffold>  (146) 
c1ccc(C2CCCCC2)cc1

>  <scaffold_id>  (146) 
S004

>  <cluster_id>  (146) 
C023

$$$$
DPC0147
     RDKit          2D

 10 10  0  0  0  0  0  0  0  0999 V2000
    5.2500   -1.2990    0.0000 C   0  0  0  0  0  0  0  0  0  0  0  0
    3.7500   -1.2990    0.0000 C   0  0  0  0  0  0  0  0  0  0  0  0
    3.0000    0.0000    0.0000 O   0  0  0  0  0  0  0  0  0  0  0  0
    1.5000    0.0000    0.0000 C   0  0  0  0  0  0  0  0  0  0  0  0
    0.7500   -1.2990    0.0000 C   0  0  0  0  0  0  0  0  0  0  0  0
   -0.7500   -1.2990    0.0000 C   0  0  0  0  0  0  0  0  0  0  0  0
   -1.5000    0.0000    0.0000 C   0  0  0  0  0  0  0  0  0  0  0  0
   -3.0000    0.0000    0.0000 O   0  0  0  0  0  0  0  0  0  0  0  0
   -0.7500    1.2990    0.0000 C   0  0  0  0  0  0  0  0  0  0  0  0
    0.7500    1.2990    0.0000 C   0  0  0  0  0  0  0  0  0  0  0  0
  1  2  1  0
  2  3  1  0
  3  4  1  0
  4  5  1  0
  5  6  2  0
  6  7  1  0
  7  8  1  0
  7  9  2  0
  9 10  1  0
 10  4  2  0
M  END
>  <compound_id>  (147) 
DPC0147

>  <smiles>  (147) 
CCOc1ccc(O)cc1

>  <patent_id>  (147) 
DEMO-103-A1

>  <assignee>  (147) 
Kestrel BioDiscovery

>  <publication_date>  (147) 
2023-07-13

>  <year>  (147) 
2023

>  <series>  (147) 
phenyl

>  <assay_id>  (147) 
ASSAY-03-04

>  <standard_relation>  (147) 
=

>  <pIC50>  (147) 
6.11

>  <project_note>  (147) 
primary measurement

>  <source_row>  (147) 
147

>  <status>  (147) 
accepted

>  <duplicate_group_size>  (147) 
1

>  <source_rows>  (147) 
147

>  <patent_ids>  (147) 
DEMO-103-A1

>  <assignees>  (147) 
Kestrel BioDiscovery

>  <molecular_weight>  (147) 
138.166

>  <clogp>  (147) 
1.791

>  <tpsa>  (147) 
29.46

>  <hbd>  (147) 
1

>  <hba>  (147) 
2

>  <rotatable_bonds>  (147) 
2

>  <heavy_atoms>  (147) 
10

>  <rings>  (147) 
1

>  <pIC50_median>  (147) 
6.11

>  <n_measurements>  (147) 
1.0

>  <murcko_scaffold>  (147) 
c1ccccc1

>  <scaffold_id>  (147) 
S001

>  <cluster_id>  (147) 
C001

$$$$
DPC0148
     RDKit          2D

 12 12  0  0  0  0  0  0  0  0999 V2000
    5.2500   -1.2990    0.0000 C   0  0  0  0  0  0  0  0  0  0  0  0
    3.7500   -1.2990    0.0000 C   0  0  0  0  0  0  0  0  0  0  0  0
    3.0000    0.0000    0.0000 O   0  0  0  0  0  0  0  0  0  0  0  0
    1.5000    0.0000    0.0000 C   0  0  0  0  0  0  0  0  0  0  0  0
    0.7500   -1.2990    0.0000 C   0  0  0  0  0  0  0  0  0  0  0  0
   -0.7500   -1.2990    0.0000 C   0  0  0  0  0  0  0  0  0  0  0  0
   -1.5000    0.0000    0.0000 C   0  0  0  0  0  0  0  0  0  0  0  0
   -3.0000    0.0000    0.0000 C   0  0  0  0  0  0  0  0  0  0  0  0
   -3.7500   -1.2990    0.0000 O   0  0  0  0  0  0  0  0  0  0  0  0
   -3.7500    1.2990    0.0000 O   0  0  0  0  0  0  0  0  0  0  0  0
   -0.7500    1.2990    0.0000 C   0  0  0  0  0  0  0  0  0  0  0  0
    0.7500    1.2990    0.0000 C   0  0  0  0  0  0  0  0  0  0  0  0
  1  2  1  0
  2  3  1  0
  3  4  1  0
  4  5  1  0
  5  6  2  0
  6  7  1  0
  7  8  1  0
  8  9  2  0
  8 10  1  0
  7 11  2  0
 11 12  1  0
 12  4  2  0
M  END
>  <compound_id>  (148) 
DPC0148

>  <smiles>  (148) 
CCOc1ccc(C(=O)O)cc1

>  <patent_id>  (148) 
DEMO-103-A1

>  <assignee>  (148) 
Kestrel BioDiscovery

>  <publication_date>  (148) 
2023-07-13

>  <year>  (148) 
2023

>  <series>  (148) 
phenyl

>  <assay_id>  (148) 
ASSAY-03-05

>  <standard_relation>  (148) 
>

>  <pIC50>  (148) 
6.26

>  <project_note>  (148) 
primary measurement

>  <source_row>  (148) 
148

>  <status>  (148) 
accepted

>  <duplicate_group_size>  (148) 
1

>  <source_rows>  (148) 
148

>  <patent_ids>  (148) 
DEMO-103-A1

>  <assignees>  (148) 
Kestrel BioDiscovery

>  <molecular_weight>  (148) 
166.176

>  <clogp>  (148) 
1.783

>  <tpsa>  (148) 
46.53

>  <hbd>  (148) 
1

>  <hba>  (148) 
2

>  <rotatable_bonds>  (148) 
3

>  <heavy_atoms>  (148) 
12

>  <rings>  (148) 
1

>  <murcko_scaffold>  (148) 
c1ccccc1

>  <scaffold_id>  (148) 
S001

>  <cluster_id>  (148) 
C001

$$$$
DPC0149
     RDKit          2D

  8  8  0  0  0  0  0  0  0  0999 V2000
    3.0000    0.0000    0.0000 N   0  0  0  0  0  0  0  0  0  0  0  0
    1.5000    0.0000    0.0000 C   0  0  0  0  0  0  0  0  0  0  0  0
    0.7500   -1.2990    0.0000 C   0  0  0  0  0  0  0  0  0  0  0  0
   -0.7500   -1.2990    0.0000 C   0  0  0  0  0  0  0  0  0  0  0  0
   -1.5000    0.0000    0.0000 C   0  0  0  0  0  0  0  0  0  0  0  0
   -3.0000    0.0000    0.0000 N   0  0  0  0  0  0  0  0  0  0  0  0
   -0.7500    1.2990    0.0000 C   0  0  0  0  0  0  0  0  0  0  0  0
    0.7500    1.2990    0.0000 C   0  0  0  0  0  0  0  0  0  0  0  0
  1  2  1  0
  2  3  1  0
  3  4  2  0
  4  5  1  0
  5  6  1  0
  5  7  2  0
  7  8  1  0
  8  2  2  0
M  END
>  <compound_id>  (149) 
DPC0149

>  <smiles>  (149) 
Nc1ccc(N)cc1

>  <patent_id>  (149) 
DEMO-103-A1

>  <assignee>  (149) 
Kestrel BioDiscovery

>  <publication_date>  (149) 
2023-07-13

>  <year>  (149) 
2023

>  <series>  (149) 
phenyl

>  <assay_id>  (149) 
ASSAY-03-06

>  <standard_relation>  (149) 
=

>  <pIC50>  (149) 
6.18

>  <project_note>  (149) 
primary measurement

>  <source_row>  (149) 
149

>  <status>  (149) 
accepted

>  <duplicate_group_size>  (149) 
1

>  <source_rows>  (149) 
149

>  <patent_ids>  (149) 
DEMO-103-A1

>  <assignees>  (149) 
Kestrel BioDiscovery

>  <molecular_weight>  (149) 
108.144

>  <clogp>  (149) 
0.851

>  <tpsa>  (149) 
52.04

>  <hbd>  (149) 
2

>  <hba>  (149) 
2

>  <rotatable_bonds>  (149) 
0

>  <heavy_atoms>  (149) 
8

>  <rings>  (149) 
1

>  <pIC50_median>  (149) 
6.18

>  <n_measurements>  (149) 
1.0

>  <murcko_scaffold>  (149) 
c1ccccc1

>  <scaffold_id>  (149) 
S001

>  <cluster_id>  (149) 
C015

$$$$
DPC0150
     RDKit          2D

  9  9  0  0  0  0  0  0  0  0999 V2000
    3.7500   -1.2990    0.0000 C   0  0  0  0  0  0  0  0  0  0  0  0
    3.0000    0.0000    0.0000 N   0  0  0  0  0  0  0  0  0  0  0  0
    1.5000    0.0000    0.0000 C   0  0  0  0  0  0  0  0  0  0  0  0
    0.7500   -1.2990    0.0000 C   0  0  0  0  0  0  0  0  0  0  0  0
   -0.7500   -1.2990    0.0000 C   0  0  0  0  0  0  0  0  0  0  0  0
   -1.5000    0.0000    0.0000 C   0  0  0  0  0  0  0  0  0  0  0  0
   -3.0000    0.0000    0.0000 N   0  0  0  0  0  0  0  0  0  0  0  0
   -0.7500    1.2990    0.0000 C   0  0  0  0  0  0  0  0  0  0  0  0
    0.7500    1.2990    0.0000 C   0  0  0  0  0  0  0  0  0  0  0  0
  1  2  1  0
  2  3  1  0
  3  4  1  0
  4  5  2  0
  5  6  1  0
  6  7  1  0
  6  8  2  0
  8  9  1  0
  9  3  2  0
M  END
>  <compound_id>  (150) 
DPC0150

>  <smiles>  (150) 
CNc1ccc(N)cc1

>  <patent_id>  (150) 
DEMO-103-A1

>  <assignee>  (150) 
Kestrel BioDiscovery

>  <publication_date>  (150) 
2023-07-13

>  <year>  (150) 
2023

>  <series>  (150) 
phenyl

>  <assay_id>  (150) 
ASSAY-03-07

>  <standard_relation>  (150) 
=

>  <pIC50>  (150) 
6.2

>  <project_note>  (150) 
primary measurement

>  <source_row>  (150) 
150

>  <status>  (150) 
accepted

>  <duplicate_group_size>  (150) 
1

>  <source_rows>  (150) 
150

>  <patent_ids>  (150) 
DEMO-103-A1

>  <assignees>  (150) 
Kestrel BioDiscovery

>  <molecular_weight>  (150) 
122.171

>  <clogp>  (150) 
1.31

>  <tpsa>  (150) 
38.05

>  <hbd>  (150) 
2

>  <hba>  (150) 
2

>  <rotatable_bonds>  (150) 
1

>  <heavy_atoms>  (150) 
9

>  <rings>  (150) 
1

>  <pIC50_median>  (150) 
6.2

>  <n_measurements>  (150) 
1.0

>  <murcko_scaffold>  (150) 
c1ccccc1

>  <scaffold_id>  (150) 
S001

>  <cluster_id>  (150) 
C008

$$$$
DPC0151
     RDKit          2D

 10 10  0  0  0  0  0  0  0  0999 V2000
    3.7500   -1.2990    0.0000 C   0  0  0  0  0  0  0  0  0  0  0  0
    3.0000    0.0000    0.0000 N   0  0  0  0  0  0  0  0  0  0  0  0
    3.7500    1.2990    0.0000 C   0  0  0  0  0  0  0  0  0  0  0  0
    1.5000    0.0000    0.0000 C   0  0  0  0  0  0  0  0  0  0  0  0
    0.7500   -1.2990    0.0000 C   0  0  0  0  0  0  0  0  0  0  0  0
   -0.7500   -1.2990    0.0000 C   0  0  0  0  0  0  0  0  0  0  0  0
   -1.5000    0.0000    0.0000 C   0  0  0  0  0  0  0  0  0  0  0  0
   -3.0000    0.0000    0.0000 N   0  0  0  0  0  0  0  0  0  0  0  0
   -0.7500    1.2990    0.0000 C   0  0  0  0  0  0  0  0  0  0  0  0
    0.7500    1.2990    0.0000 C   0  0  0  0  0  0  0  0  0  0  0  0
  1  2  1  0
  2  3  1  0
  2  4  1  0
  4  5  1  0
  5  6  2  0
  6  7  1  0
  7  8  1  0
  7  9  2  0
  9 10  1  0
 10  4  2  0
M  END
>  <compound_id>  (151) 
DPC0151

>  <smiles>  (151) 
CN(C)c1ccc(N)cc1

>  <patent_id>  (151) 
DEMO-103-A1

>  <assignee>  (151) 
Kestrel BioDiscovery

>  <publication_date>  (151) 
2023-07-13

>  <year>  (151) 
2023

>  <series>  (151) 
phenyl

>  <assay_id>  (151) 
ASSAY-03-08

>  <standard_relation>  (151) 
=

>  <pIC50>  (151) 
6.16

>  <project_note>  (151) 
primary measurement

>  <source_row>  (151) 
151

>  <status>  (151) 
accepted

>  <duplicate_group_size>  (151) 
1

>  <source_rows>  (151) 
151

>  <patent_ids>  (151) 
DEMO-103-A1

>  <assignees>  (151) 
Kestrel BioDiscovery

>  <molecular_weight>  (151) 
136.198

>  <clogp>  (151) 
1.335

>  <tpsa>  (151) 
29.26

>  <hbd>  (151) 
1

>  <hba>  (151) 
2

>  <rotatable_bonds>  (151) 
1

>  <heavy_atoms>  (151) 
10

>  <rings>  (151) 
1

>  <pIC50_median>  (151) 
6.16

>  <n_measurements>  (151) 
1.0

>  <murcko_scaffold>  (151) 
c1ccccc1

>  <scaffold_id>  (151) 
S001

>  <cluster_id>  (151) 
C007

$$$$
DPC0152
     RDKit          2D

  9  9  0  0  0  0  0  0  0  0999 V2000
    4.5000    0.0000    0.0000 N   0  0  0  0  0  0  0  0  0  0  0  0
    3.0000    0.0000    0.0000 C   0  0  0  0  0  0  0  0  0  0  0  0
    1.5000    0.0000    0.0000 C   0  0  0  0  0  0  0  0  0  0  0  0
    0.7500   -1.2990    0.0000 C   0  0  0  0  0  0  0  0  0  0  0  0
   -0.7500   -1.2990    0.0000 C   0  0  0  0  0  0  0  0  0  0  0  0
   -1.5000    0.0000    0.0000 C   0  0  0  0  0  0  0  0  0  0  0  0
   -3.0000    0.0000    0.0000 N   0  0  0  0  0  0  0  0  0  0  0  0
   -0.7500    1.2990    0.0000 C   0  0  0  0  0  0  0  0  0  0  0  0
    0.7500    1.2990    0.0000 C   0  0  0  0  0  0  0  0  0  0  0  0
  1  2  3  0
  2  3  1  0
  3  4  1  0
  4  5  2  0
  5  6  1  0
  6  7  1  0
  6  8  2  0
  8  9  1  0
  9  3  2  0
M  END
>  <compound_id>  (152) 
DPC0152

>  <smiles>  (152) 
N#Cc1ccc(N)cc1

>  <patent_id>  (152) 
DEMO-103-A1

>  <assignee>  (152) 
Kestrel BioDiscovery

>  <publication_date>  (152) 
2023-07-13

>  <year>  (152) 
2023

>  <series>  (152) 
phenyl

>  <assay_id>  (152) 
ASSAY-03-09

>  <standard_relation>  (152) 
=

>  <pIC50>  (152) 
6.15

>  <project_note>  (152) 
primary measurement

>  <source_row>  (152) 
152

>  <status>  (152) 
accepted

>  <duplicate_group_size>  (152) 
1

>  <source_rows>  (152) 
152

>  <patent_ids>  (152) 
DEMO-103-A1

>  <assignees>  (152) 
Kestrel BioDiscovery

>  <molecular_weight>  (152) 
118.139

>  <clogp>  (152) 
1.14

>  <tpsa>  (152) 
49.81

>  <hbd>  (152) 
1

>  <hba>  (152) 
2

>  <rotatable_bonds>  (152) 
0

>  <heavy_atoms>  (152) 
9

>  <rings>  (152) 
1

>  <pIC50_median>  (152) 
6.15

>  <n_measurements>  (152) 
1.0

>  <murcko_scaffold>  (152) 
c1ccccc1

>  <scaffold_id>  (152) 
S001

>  <cluster_id>  (152) 
C009

$$$$
DPC0153
     RDKit          2D

 11 11  0  0  0  0  0  0  0  0999 V2000
    3.0000    0.0000    0.0000 N   0  0  0  0  0  0  0  0  0  0  0  0
    1.5000    0.0000    0.0000 C   0  0  0  0  0  0  0  0  0  0  0  0
    0.7500   -1.2990    0.0000 C   0  0  0  0  0  0  0  0  0  0  0  0
   -0.7500   -1.2990    0.0000 C   0  0  0  0  0  0  0  0  0  0  0  0
   -1.5000    0.0000    0.0000 C   0  0  0  0  0  0  0  0  0  0  0  0
   -3.0000    0.0000    0.0000 C   0  0  0  0  0  0  0  0  0  0  0  0
   -4.5000    0.0000    0.0000 F   0  0  0  0  0  0  0  0  0  0  0  0
   -3.0000    1.5000    0.0000 F   0  0  0  0  0  0  0  0  0  0  0  0
   -3.0000   -1.5000    0.0000 F   0  0  0  0  0  0  0  0  0  0  0  0
   -0.7500    1.2990    0.0000 C   0  0  0  0  0  0  0  0  0  0  0  0
    0.7500    1.2990    0.0000 C   0  0  0  0  0  0  0  0  0  0  0  0
  1  2  1  0
  2  3  1  0
  3  4  2  0
  4  5  1  0
  5  6  1  0
  6  7  1  0
  6  8  1  0
  6  9  1  0
  5 10  2  0
 10 11  1  0
 11  2  2  0
M  END
>  <compound_id>  (153) 
DPC0153

>  <smiles>  (153) 
Nc1ccc(C(F)(F)F)cc1

>  <patent_id>  (153) 
DEMO-103-A1

>  <assignee>  (153) 
Kestrel BioDiscovery

>  <publication_date>  (153) 
2023-07-13

>  <year>  (153) 
2023

>  <series>  (153) 
phenyl

>  <assay_id>  (153) 
ASSAY-03-10

>  <standard_relation>  (153) 
=

>  <pIC50>  (153) 
6.06

>  <project_note>  (153) 
primary measurement

>  <source_row>  (153) 
153

>  <status>  (153) 
accepted

>  <duplicate_group_size>  (153) 
1

>  <source_rows>  (153) 
153

>  <patent_ids>  (153) 
DEMO-103-A1

>  <assignees>  (153) 
Kestrel BioDiscovery

>  <molecular_weight>  (153) 
161.126

>  <clogp>  (153) 
2.288

>  <tpsa>  (153) 
26.02

>  <hbd>  (153) 
1

>  <hba>  (153) 
1

>  <rotatable_bonds>  (153) 
0

>  <heavy_atoms>  (153) 
11

>  <rings>  (153) 
1

>  <pIC50_median>  (153) 
6.06

>  <n_measurements>  (153) 
1.0

>  <murcko_scaffold>  (153) 
c1ccccc1

>  <scaffold_id>  (153) 
S001

>  <cluster_id>  (153) 
C006

$$$$
DPC0154
     RDKit          2D

 10 10  0  0  0  0  0  0  0  0999 V2000
    3.7500   -1.2990    0.0000 N   0  0  0  0  0  0  0  0  0  0  0  0
    3.0000    0.0000    0.0000 C   0  0  0  0  0  0  0  0  0  0  0  0
    3.7500    1.2990    0.0000 O   0  0  0  0  0  0  0  0  0  0  0  0
    1.5000    0.0000    0.0000 C   0  0  0  0  0  0  0  0  0  0  0  0
    0.7500   -1.2990    0.0000 C   0  0  0  0  0  0  0  0  0  0  0  0
   -0.7500   -1.2990    0.0000 C   0  0  0  0  0  0  0  0  0  0  0  0
   -1.5000    0.0000    0.0000 C   0  0  0  0  0  0  0  0  0  0  0  0
   -3.0000    0.0000    0.0000 N   0  0  0  0  0  0  0  0  0  0  0  0
   -0.7500    1.2990    0.0000 C   0  0  0  0  0  0  0  0  0  0  0  0
    0.7500    1.2990    0.0000 C   0  0  0  0  0  0  0  0  0  0  0  0
  1  2  1  0
  2  3  2  0
  2  4  1  0
  4  5  1  0
  5  6  2  0
  6  7  1  0
  7  8  1  0
  7  9  2  0
  9 10  1  0
 10  4  2  0
M  END
>  <compound_id>  (154) 
DPC0154

>  <smiles>  (154) 
NC(=O)c1ccc(N)cc1

>  <patent_id>  (154) 
DEMO-103-A1

>  <assignee>  (154) 
Kestrel BioDiscovery

>  <publication_date>  (154) 
2023-07-13

>  <year>  (154) 
2023

>  <series>  (154) 
phenyl

>  <assay_id>  (154) 
ASSAY-03-11

>  <standard_relation>  (154) 
=

>  <pIC50>  (154) 
6.06

>  <project_note>  (154) 
primary measurement

>  <source_row>  (154) 
154

>  <status>  (154) 
accepted

>  <duplicate_group_size>  (154) 
1

>  <source_rows>  (154) 
154

>  <patent_ids>  (154) 
DEMO-103-A1

>  <assignees>  (154) 
Kestrel BioDiscovery

>  <molecular_weight>  (154) 
136.154

>  <clogp>  (154) 
0.368

>  <tpsa>  (154) 
69.11

>  <hbd>  (154) 
2

>  <hba>  (154) 
2

>  <rotatable_bonds>  (154) 
1

>  <heavy_atoms>  (154) 
10

>  <rings>  (154) 
1

>  <pIC50_median>  (154) 
6.06

>  <n_measurements>  (154) 
1.0

>  <murcko_scaffold>  (154) 
c1ccccc1

>  <scaffold_id>  (154) 
S001

>  <cluster_id>  (154) 
C003

$$$$
DPC0155
     RDKit          2D

 11 11  0  0  0  0  0  0  0  0999 V2000
    5.2500   -1.2990    0.0000 C   0  0  0  0  0  0  0  0  0  0  0  0
    3.7500   -1.2990    0.0000 N   0  0  0  0  0  0  0  0  0  0  0  0
    3.0000    0.0000    0.0000 C   0  0  0  0  0  0  0  0  0  0  0  0
    3.7500    1.2990    0.0000 O   0  0  0  0  0  0  0  0  0  0  0  0
    1.5000    0.0000    0.0000 C   0  0  0  0  0  0  0  0  0  0  0  0
    0.7500   -1.2990    0.0000 C   0  0  0  0  0  0  0  0  0  0  0  0
   -0.7500   -1.2990    0.0000 C   0  0  0  0  0  0  0  0  0  0  0  0
   -1.5000    0.0000    0.0000 C   0  0  0  0  0  0  0  0  0  0  0  0
   -3.0000    0.0000    0.0000 N   0  0  0  0  0  0  0  0  0  0  0  0
   -0.7500    1.2990    0.0000 C   0  0  0  0  0  0  0  0  0  0  0  0
    0.7500    1.2990    0.0000 C   0  0  0  0  0  0  0  0  0  0  0  0
  1  2  1  0
  2  3  1  0
  3  4  2  0
  3  5  1  0
  5  6  1  0
  6  7  2  0
  7  8  1  0
  8  9  1  0
  8 10  2  0
 10 11  1  0
 11  5  2  0
M  END
>  <compound_id>  (155) 
DPC0155

>  <smiles>  (155) 
CNC(=O)c1ccc(N)cc1

>  <patent_id>  (155) 
DEMO-103-A1

>  <assignee>  (155) 
Kestrel BioDiscovery

>  <publication_date>  (155) 
2023-07-13

>  <year>  (155) 
2023

>  <series>  (155) 
phenyl

>  <assay_id>  (155) 
ASSAY-03-12

>  <standard_relation>  (155) 
=

>  <pIC50>  (155) 
6.22

>  <project_note>  (155) 
primary measurement

>  <source_row>  (155) 
155

>  <status>  (155) 
accepted

>  <duplicate_group_size>  (155) 
1

>  <source_rows>  (155) 
155

>  <patent_ids>  (155) 
DEMO-103-A1

>  <assignees>  (155) 
Kestrel BioDiscovery

>  <molecular_weight>  (155) 
150.181

>  <clogp>  (155) 
0.628

>  <tpsa>  (155) 
55.12

>  <hbd>  (155) 
2

>  <hba>  (155) 
2

>  <rotatable_bonds>  (155) 
1

>  <heavy_atoms>  (155) 
11

>  <rings>  (155) 
1

>  <pIC50_median>  (155) 
6.22

>  <n_measurements>  (155) 
1.0

>  <murcko_scaffold>  (155) 
c1ccccc1

>  <scaffold_id>  (155) 
S001

>  <cluster_id>  (155) 
C010

$$$$
DPC0156
     RDKit          2D

 11 11  0  0  0  0  0  0  0  0999 V2000
    3.0000    0.0000    0.0000 N   0  0  0  0  0  0  0  0  0  0  0  0
    1.5000    0.0000    0.0000 C   0  0  0  0  0  0  0  0  0  0  0  0
    0.7500   -1.2990    0.0000 C   0  0  0  0  0  0  0  0  0  0  0  0
   -0.7500   -1.2990    0.0000 C   0  0  0  0  0  0  0  0  0  0  0  0
   -1.5000    0.0000    0.0000 C   0  0  0  0  0  0  0  0  0  0  0  0
   -3.0000    0.0000    0.0000 S   0  0  0  0  0  0  0  0  0  0  0  0
   -4.5000    0.0000    0.0000 N   0  0  0  0  0  0  0  0  0  0  0  0
   -3.0000    1.5000    0.0000 O   0  0  0  0  0  0  0  0  0  0  0  0
   -3.0000   -1.5000    0.0000 O   0  0  0  0  0  0  0  0  0  0  0  0
   -0.7500    1.2990    0.0000 C   0  0  0  0  0  0  0  0  0  0  0  0
    0.7500    1.2990    0.0000 C   0  0  0  0  0  0  0  0  0  0  0  0
  1  2  1  0
  2  3  1  0
  3  4  2  0
  4  5  1  0
  5  6  1  0
  6  7  1  0
  6  8  2  0
  6  9  2  0
  5 10  2  0
 10 11  1  0
 11  2  2  0
M  END
>  <compound_id>  (156) 
DPC0156

>  <smiles>  (156) 
Nc1ccc(S(N)(=O)=O)cc1

>  <patent_id>  (156) 
DEMO-103-A1

>  <assignee>  (156) 
Kestrel BioDiscovery

>  <publication_date>  (156) 
2023-07-13

>  <year>  (156) 
2023

>  <series>  (156) 
phenyl

>  <assay_id>  (156) 
ASSAY-03-01

>  <standard_relation>  (156) 
=

>  <pIC50>  (156) 
6.2

>  <project_note>  (156) 
primary measurement

>  <source_row>  (156) 
156

>  <status>  (156) 
accepted

>  <duplicate_group_size>  (156) 
1

>  <source_rows>  (156) 
156

>  <patent_ids>  (156) 
DEMO-103-A1

>  <assignees>  (156) 
Kestrel BioDiscovery

>  <molecular_weight>  (156) 
172.209

>  <clogp>  (156) 
-0.084

>  <tpsa>  (156) 
86.18

>  <hbd>  (156) 
2

>  <hba>  (156) 
3

>  <rotatable_bonds>  (156) 
1

>  <heavy_atoms>  (156) 
11

>  <rings>  (156) 
1

>  <pIC50_median>  (156) 
6.2

>  <n_measurements>  (156) 
1.0

>  <murcko_scaffold>  (156) 
c1ccccc1

>  <scaffold_id>  (156) 
S001

>  <cluster_id>  (156) 
C014

$$$$
DPC0157
     RDKit          2D

 12 12  0  0  0  0  0  0  0  0999 V2000
    3.0000    0.0000    0.0000 N   0  0  0  0  0  0  0  0  0  0  0  0
    1.5000    0.0000    0.0000 C   0  0  0  0  0  0  0  0  0  0  0  0
    0.7500   -1.2990    0.0000 C   0  0  0  0  0  0  0  0  0  0  0  0
   -0.7500   -1.2990    0.0000 C   0  0  0  0  0  0  0  0  0  0  0  0
   -1.5000    0.0000    0.0000 C   0  0  0  0  0  0  0  0  0  0  0  0
   -3.0000    0.0000    0.0000 O   0  0  0  0  0  0  0  0  0  0  0  0
   -3.7500    1.2990    0.0000 C   0  0  0  0  0  0  0  0  0  0  0  0
   -4.5000    2.5981    0.0000 F   0  0  0  0  0  0  0  0  0  0  0  0
   -5.0490    0.5490    0.0000 F   0  0  0  0  0  0  0  0  0  0  0  0
   -2.4510    2.0490    0.0000 F   0  0  0  0  0  0  0  0  0  0  0  0
   -0.7500    1.2990    0.0000 C   0  0  0  0  0  0  0  0  0  0  0  0
    0.7500    1.2990    0.0000 C   0  0  0  0  0  0  0  0  0  0  0  0
  1  2  1  0
  2  3  1  0
  3  4  2  0
  4  5  1  0
  5  6  1  0
  6  7  1  0
  7  8  1  0
  7  9  1  0
  7 10  1  0
  5 11  2  0
 11 12  1  0
 12  2  2  0
M  END
>  <compound_id>  (157) 
DPC0157

>  <smiles>  (157) 
Nc1ccc(OC(F)(F)F)cc1

>  <patent_id>  (157) 
DEMO-103-A1

>  <assignee>  (157) 
Kestrel BioDiscovery

>  <publication_date>  (157) 
2023-07-13

>  <year>  (157) 
2023

>  <series>  (157) 
phenyl

>  <assay_id>  (157) 
ASSAY-03-02

>  <standard_relation>  (157) 
=

>  <pIC50>  (157) 
6.25

>  <project_note>  (157) 
primary measurement

>  <source_row>  (157) 
157

>  <status>  (157) 
accepted

>  <duplicate_group_size>  (157) 
1

>  <source_rows>  (157) 
157

>  <patent_ids>  (157) 
DEMO-103-A1

>  <assignees>  (157) 
Kestrel BioDiscovery

>  <molecular_weight>  (157) 
177.125

>  <clogp>  (157) 
2.167

>  <tpsa>  (157) 
35.25

>  <hbd>  (157) 
1

>  <hba>  (157) 
2

>  <rotatable_bonds>  (157) 
1

>  <heavy_atoms>  (157) 
12

>  <rings>  (157) 
1

>  <pIC50_median>  (157) 
6.25

>  <n_measurements>  (157) 
1.0

>  <murcko_scaffold>  (157) 
c1ccccc1

>  <scaffold_id>  (157) 
S001

>  <cluster_id>  (157) 
C013

$$$$
DPC0158
     RDKit          2D

 13 14  0  0  0  0  0  0  0  0999 V2000
    3.0000    0.0000    0.0000 N   0  0  0  0  0  0  0  0  0  0  0  0
    1.5000    0.0000    0.0000 C   0  0  0  0  0  0  0  0  0  0  0  0
    0.7500   -1.2990    0.0000 C   0  0  0  0  0  0  0  0  0  0  0  0
   -0.7500   -1.2990    0.0000 C   0  0  0  0  0  0  0  0  0  0  0  0
   -1.5000    0.0000    0.0000 C   0  0  0  0  0  0  0  0  0  0  0  0
   -3.0000    0.0000    0.0000 N   0  0  0  0  0  0  0  0  0  0  0  0
   -3.7500    1.2990    0.0000 C   0  0  0  0  0  0  0  0  0  0  0  0
   -5.2500    1.2990    0.0000 C   0  0  0  0  0  0  0  0  0  0  0  0
   -6.0000    0.0000    0.0000 O   0  0  0  0  0  0  0  0  0  0  0  0
   -5.2500   -1.2990    0.0000 C   0  0  0  0  0  0  0  0  0  0  0  0
   -3.7500   -1.2990    0.0000 C   0  0  0  0  0  0  0  0  0  0  0  0
   -0.7500    1.2990    0.0000 C   0  0  0  0  0  0  0  0  0  0  0  0
    0.7500    1.2990    0.0000 C   0  0  0  0  0  0  0  0  0  0  0  0
  1  2  1  0
  2  3  1  0
  3  4  2  0
  4  5  1  0
  5  6  1  0
  6  7  1  0
  7  8  1  0
  8  9  1  0
  9 10  1  0
 10 11  1  0
  5 12  2  0
 12 13  1  0
 13  2  2  0
 11  6  1  0
M  END
>  <compound_id>  (158) 
DPC0158

>  <smiles>  (158) 
Nc1ccc(N2CCOCC2)cc1

>  <patent_id>  (158) 
DEMO-103-A1

>  <assignee>  (158) 
Kestrel BioDiscovery

>  <publication_date>  (158) 
2023-07-13

>  <year>  (158) 
2023

>  <series>  (158) 
phenyl

>  <assay_id>  (158) 
ASSAY-03-03

>  <standard_relation>  (158) 
=

>  <pIC50>  (158) 
6.4

>  <project_note>  (158) 
primary measurement

>  <source_row>  (158) 
158

>  <status>  (158) 
accepted

>  <duplicate_group_size>  (158) 
1

>  <source_rows>  (158) 
158

>  <patent_ids>  (158) 
DEMO-103-A1

>  <assignees>  (158) 
Kestrel BioDiscovery

>  <molecular_weight>  (158) 
178.235

>  <clogp>  (158) 
1.105

>  <tpsa>  (158) 
38.49

>  <hbd>  (158) 
1

>  <hba>  (158) 
3

>  <rotatable_bonds>  (158) 
1

>  <heavy_atoms>  (158) 
13

>  <rings>  (158) 
2

>  <pIC50_median>  (158) 
6.4

>  <n_measurements>  (158) 
1.0

>  <murcko_scaffold>  (158) 
c1ccc(N2CCOCC2)cc1

>  <scaffold_id>  (158) 
S002

>  <cluster_id>  (158) 
C011

$$$$
DPC0159
     RDKit          2D

 10 11  0  0  0  0  0  0  0  0999 V2000
    3.0000    0.0000    0.0000 N   0  0  0  0  0  0  0  0  0  0  0  0
    1.5000    0.0000    0.0000 C   0  0  0  0  0  0  0  0  0  0  0  0
    0.7500   -1.2990    0.0000 C   0  0  0  0  0  0  0  0  0  0  0  0
   -0.7500   -1.2990    0.0000 C   0  0  0  0  0  0  0  0  0  0  0  0
   -1.5000    0.0000    0.0000 C   0  0  0  0  0  0  0  0  0  0  0  0
   -3.0000    0.0000    0.0000 C   0  0  0  0  0  0  0  0  0  0  0  0
   -4.2990   -0.7500    0.0000 C   0  0  0  0  0  0  0  0  0  0  0  0
   -4.2990    0.7500    0.0000 C   0  0  0  0  0  0  0  0  0  0  0  0
   -0.7500    1.2990    0.0000 C   0  0  0  0  0  0  0  0  0  0  0  0
    0.7500    1.2990    0.0000 C   0  0  0  0  0  0  0  0  0  0  0  0
  1  2  1  0
  2  3  1  0
  3  4  2  0
  4  5  1  0
  5  6  1  0
  6  7  1  0
  7  8  1  0
  5  9  2  0
  9 10  1  0
 10  2  2  0
  8  6  1  0
M  END
>  <compound_id>  (159) 
DPC0159

>  <smiles>  (159) 
Nc1ccc(C2CC2)cc1

>  <patent_id>  (159) 
DEMO-103-A1

>  <assignee>  (159) 
Kestrel BioDiscovery

>  <publication_date>  (159) 
2023-07-13

>  <year>  (159) 
2023

>  <series>  (159) 
phenyl

>  <assay_id>  (159) 
ASSAY-03-04

>  <standard_relation>  (159) 
=

>  <pIC50>  (159) 
5.98

>  <project_note>  (159) 
primary measurement

>  <source_row>  (159) 
159

>  <status>  (159) 
accepted

>  <duplicate_group_size>  (159) 
1

>  <source_rows>  (159) 
159

>  <patent_ids>  (159) 
DEMO-103-A1

>  <assignees>  (159) 
Kestrel BioDiscovery

>  <molecular_weight>  (159) 
133.194

>  <clogp>  (159) 
2.146

>  <tpsa>  (159) 
26.02

>  <hbd>  (159) 
1

>  <hba>  (159) 
1

>  <rotatable_bonds>  (159) 
1

>  <heavy_atoms>  (159) 
10

>  <rings>  (159) 
2

>  <pIC50_median>  (159) 
5.98

>  <n_measurements>  (159) 
1.0

>  <murcko_scaffold>  (159) 
c1ccc(C2CC2)cc1

>  <scaffold_id>  (159) 
S003

>  <cluster_id>  (159) 
C031

$$$$
DPC0160
     RDKit          2D

 13 14  0  0  0  0  0  0  0  0999 V2000
    3.0000    0.0000    0.0000 N   0  0  0  0  0  0  0  0  0  0  0  0
    1.5000    0.0000    0.0000 C   0  0  0  0  0  0  0  0  0  0  0  0
    0.7500   -1.2990    0.0000 C   0  0  0  0  0  0  0  0  0  0  0  0
   -0.7500   -1.2990    0.0000 C   0  0  0  0  0  0  0  0  0  0  0  0
   -1.5000    0.0000    0.0000 C   0  0  0  0  0  0  0  0  0  0  0  0
   -3.0000    0.0000    0.0000 C   0  0  0  0  0  0  0  0  0  0  0  0
   -3.7500    1.2990    0.0000 C   0  0  0  0  0  0  0  0  0  0  0  0
   -5.2500    1.2990    0.0000 C   0  0  0  0  0  0  0  0  0  0  0  0
   -6.0000    0.0000    0.0000 C   0  0  0  0  0  0  0  0  0  0  0  0
   -5.2500   -1.2990    0.0000 C   0  0  0  0  0  0  0  0  0  0  0  0
   -3.7500   -1.2990    0.0000 C   0  0  0  0  0  0  0  0  0  0  0  0
   -0.7500    1.2990    0.0000 C   0  0  0  0  0  0  0  0  0  0  0  0
    0.7500    1.2990    0.0000 C   0  0  0  0  0  0  0  0  0  0  0  0
  1  2  1  0
  2  3  1  0
  3  4  2  0
  4  5  1  0
  5  6  1  0
  6  7  1  0
  7  8  1  0
  8  9  1  0
  9 10  1  0
 10 11  1  0
  5 12  2  0
 12 13  1  0
 13  2  2  0
 11  6  1  0
M  END
>  <compound_id>  (160) 
DPC0160

>  <smiles>  (160) 
Nc1ccc(C2CCCCC2)cc1

>  <patent_id>  (160) 
DEMO-103-A1

>  <assignee>  (160) 
Kestrel BioDiscovery

>  <publication_date>  (160) 
2023-07-13

>  <year>  (160) 
2023

>  <series>  (160) 
phenyl

>  <assay_id>  (160) 
ASSAY-03-05

>  <standard_relation>  (160) 
=

>  <pIC50>  (160) 
5.96

>  <project_note>  (160) 
primary measurement

>  <source_row>  (160) 
160

>  <status>  (160) 
accepted

>  <duplicate_group_size>  (160) 
1

>  <source_rows>  (160) 
160

>  <patent_ids>  (160) 
DEMO-103-A1

>  <assignees>  (160) 
Kestrel BioDiscovery

>  <molecular_weight>  (160) 
175.275

>  <clogp>  (160) 
3.317

>  <tpsa>  (160) 
26.02

>  <hbd>  (160) 
1

>  <hba>  (160) 
1

>  <rotatable_bonds>  (160) 
1

>  <heavy_atoms>  (160) 
13

>  <rings>  (160) 
2

>  <pIC50_median>  (160) 
5.96

>  <n_measurements>  (160) 
1.0

>  <murcko_scaffold>  (160) 
c1ccc(C2CCCCC2)cc1

>  <scaffold_id>  (160) 
S004

>  <cluster_id>  (160) 
C012

$$$$
DPC0161
     RDKit          2D

  8  8  0  0  0  0  0  0  0  0999 V2000
    3.0000    0.0000    0.0000 N   0  0  0  0  0  0  0  0  0  0  0  0
    1.5000    0.0000    0.0000 C   0  0  0  0  0  0  0  0  0  0  0  0
    0.7500   -1.2990    0.0000 C   0  0  0  0  0  0  0  0  0  0  0  0
   -0.7500   -1.2990    0.0000 C   0  0  0  0  0  0  0  0  0  0  0  0
   -1.5000    0.0000    0.0000 C   0  0  0  0  0  0  0  0  0  0  0  0
   -3.0000    0.0000    0.0000 O   0  0  0  0  0  0  0  0  0  0  0  0
   -0.7500    1.2990    0.0000 C   0  0  0  0  0  0  0  0  0  0  0  0
    0.7500    1.2990    0.0000 C   0  0  0  0  0  0  0  0  0  0  0  0
  1  2  1  0
  2  3  1  0
  3  4  2  0
  4  5  1  0
  5  6  1  0
  5  7  2  0
  7  8  1  0
  8  2  2  0
M  END
>  <compound_id>  (161) 
DPC0161

>  <smiles>  (161) 
Nc1ccc(O)cc1

>  <patent_id>  (161) 
DEMO-103-A1

>  <assignee>  (161) 
Kestrel BioDiscovery

>  <publication_date>  (161) 
2023-07-13

>  <year>  (161) 
2023

>  <series>  (161) 
phenyl

>  <assay_id>  (161) 
ASSAY-03-06

>  <standard_relation>  (161) 
<

>  <pIC50>  (161) 
5.67

>  <project_note>  (161) 
primary measurement

>  <source_row>  (161) 
161

>  <status>  (161) 
accepted

>  <duplicate_group_size>  (161) 
1

>  <source_rows>  (161) 
161

>  <patent_ids>  (161) 
DEMO-103-A1

>  <assignees>  (161) 
Kestrel BioDiscovery

>  <molecular_weight>  (161) 
109.128

>  <clogp>  (161) 
0.974

>  <tpsa>  (161) 
46.25

>  <hbd>  (161) 
2

>  <hba>  (161) 
2

>  <rotatable_bonds>  (161) 
0

>  <heavy_atoms>  (161) 
8

>  <rings>  (161) 
1

>  <murcko_scaffold>  (161) 
c1ccccc1

>  <scaffold_id>  (161) 
S001

>  <cluster_id>  (161) 
C015

$$$$
DPC0162
     RDKit          2D

 10 10  0  0  0  0  0  0  0  0999 V2000
    3.0000    0.0000    0.0000 N   0  0  0  0  0  0  0  0  0  0  0  0
    1.5000    0.0000    0.0000 C   0  0  0  0  0  0  0  0  0  0  0  0
    0.7500   -1.2990    0.0000 C   0  0  0  0  0  0  0  0  0  0  0  0
   -0.7500   -1.2990    0.0000 C   0  0  0  0  0  0  0  0  0  0  0  0
   -1.5000    0.0000    0.0000 C   0  0  0  0  0  0  0  0  0  0  0  0
   -3.0000    0.0000    0.0000 C   0  0  0  0  0  0  0  0  0  0  0  0
   -3.7500   -1.2990    0.0000 O   0  0  0  0  0  0  0  0  0  0  0  0
   -3.7500    1.2990    0.0000 O   0  0  0  0  0  0  0  0  0  0  0  0
   -0.7500    1.2990    0.0000 C   0  0  0  0  0  0  0  0  0  0  0  0
    0.7500    1.2990    0.0000 C   0  0  0  0  0  0  0  0  0  0  0  0
  1  2  1  0
  2  3  1  0
  3  4  2  0
  4  5  1  0
  5  6  1  0
  6  7  2  0
  6  8  1  0
  5  9  2  0
  9 10  1  0
 10  2  2  0
M  END
>  <compound_id>  (162) 
DPC0162

>  <smiles>  (162) 
Nc1ccc(C(=O)O)cc1

>  <patent_id>  (162) 
DEMO-103-A1

>  <assignee>  (162) 
Kestrel BioDiscovery

>  <publication_date>  (162) 
2023-07-13

>  <year>  (162) 
2023

>  <series>  (162) 
phenyl

>  <assay_id>  (162) 
ASSAY-03-07

>  <standard_relation>  (162) 
=

>  <pIC50>  (162) 
5.73

>  <project_note>  (162) 
primary measurement

>  <source_row>  (162) 
162

>  <status>  (162) 
accepted

>  <duplicate_group_size>  (162) 
1

>  <source_rows>  (162) 
162

>  <patent_ids>  (162) 
DEMO-103-A1

>  <assignees>  (162) 
Kestrel BioDiscovery

>  <molecular_weight>  (162) 
137.138

>  <clogp>  (162) 
0.967

>  <tpsa>  (162) 
63.32

>  <hbd>  (162) 
2

>  <hba>  (162) 
2

>  <rotatable_bonds>  (162) 
1

>  <heavy_atoms>  (162) 
10

>  <rings>  (162) 
1

>  <pIC50_median>  (162) 
5.73

>  <n_measurements>  (162) 
1.0

>  <murcko_scaffold>  (162) 
c1ccccc1

>  <scaffold_id>  (162) 
S001

>  <cluster_id>  (162) 
C030

$$$$
DPC0163
     RDKit          2D

 10 10  0  0  0  0  0  0  0  0999 V2000
    3.7500   -1.2990    0.0000 C   0  0  0  0  0  0  0  0  0  0  0  0
    3.0000    0.0000    0.0000 N   0  0  0  0  0  0  0  0  0  0  0  0
    1.5000    0.0000    0.0000 C   0  0  0  0  0  0  0  0  0  0  0  0
    0.7500   -1.2990    0.0000 C   0  0  0  0  0  0  0  0  0  0  0  0
   -0.7500   -1.2990    0.0000 C   0  0  0  0  0  0  0  0  0  0  0  0
   -1.5000    0.0000    0.0000 C   0  0  0  0  0  0  0  0  0  0  0  0
   -3.0000    0.0000    0.0000 N   0  0  0  0  0  0  0  0  0  0  0  0
   -3.7500    1.2990    0.0000 C   0  0  0  0  0  0  0  0  0  0  0  0
   -0.7500    1.2990    0.0000 C   0  0  0  0  0  0  0  0  0  0  0  0
    0.7500    1.2990    0.0000 C   0  0  0  0  0  0  0  0  0  0  0  0
  1  2  1  0
  2  3  1  0
  3  4  1  0
  4  5  2  0
  5  6  1  0
  6  7  1  0
  7  8  1  0
  6  9  2  0
  9 10  1  0
 10  3  2  0
M  END
>  <compound_id>  (163) 
DPC0163

>  <smiles>  (163) 
CNc1ccc(NC)cc1

>  <patent_id>  (163) 
DEMO-104-A1

>  <assignee>  (163) 
Mosaic Medicines

>  <publication_date>  (163) 
2024-11-21

>  <year>  (163) 
2024

>  <series>  (163) 
phenyl

>  <assay_id>  (163) 
ASSAY-04-08

>  <standard_relation>  (163) 
=

>  <pIC50>  (163) 
6.13

>  <project_note>  (163) 
primary measurement

>  <source_row>  (163) 
163

>  <status>  (163) 
accepted

>  <duplicate_group_size>  (163) 
2

>  <source_rows>  (163) 
163 | 229

>  <patent_ids>  (163) 
DEMO-103-A1 | DEMO-104-A1

>  <assignees>  (163) 
Kestrel BioDiscovery | Mosaic Medicines

>  <molecular_weight>  (163) 
136.198

>  <clogp>  (163) 
1.77

>  <tpsa>  (163) 
24.06

>  <hbd>  (163) 
2

>  <hba>  (163) 
2

>  <rotatable_bonds>  (163) 
2

>  <heavy_atoms>  (163) 
10

>  <rings>  (163) 
1

>  <pIC50_median>  (163) 
6.01

>  <n_measurements>  (163) 
2.0

>  <murcko_scaffold>  (163) 
c1ccccc1

>  <scaffold_id>  (163) 
S001

>  <cluster_id>  (163) 
C008

$$$$
DPC0164
     RDKit          2D

 11 11  0  0  0  0  0  0  0  0999 V2000
    3.7500   -1.2990    0.0000 C   0  0  0  0  0  0  0  0  0  0  0  0
    3.0000    0.0000    0.0000 N   0  0  0  0  0  0  0  0  0  0  0  0
    1.5000    0.0000    0.0000 C   0  0  0  0  0  0  0  0  0  0  0  0
    0.7500   -1.2990    0.0000 C   0  0  0  0  0  0  0  0  0  0  0  0
   -0.7500   -1.2990    0.0000 C   0  0  0  0  0  0  0  0  0  0  0  0
   -1.5000    0.0000    0.0000 C   0  0  0  0  0  0  0  0  0  0  0  0
   -3.0000    0.0000    0.0000 N   0  0  0  0  0  0  0  0  0  0  0  0
   -3.7500    1.2990    0.0000 C   0  0  0  0  0  0  0  0  0  0  0  0
   -3.7500   -1.2990    0.0000 C   0  0  0  0  0  0  0  0  0  0  0  0
   -0.7500    1.2990    0.0000 C   0  0  0  0  0  0  0  0  0  0  0  0
    0.7500    1.2990    0.0000 C   0  0  0  0  0  0  0  0  0  0  0  0
  1  2  1  0
  2  3  1  0
  3  4  1  0
  4  5  2  0
  5  6  1  0
  6  7  1  0
  7  8  1  0
  7  9  1  0
  6 10  2  0
 10 11  1  0
 11  3  2  0
M  END
>  <compound_id>  (164) 
DPC0164

>  <smiles>  (164) 
CNc1ccc(N(C)C)cc1

>  <patent_id>  (164) 
DEMO-104-A1

>  <assignee>  (164) 
Mosaic Medicines

>  <publication_date>  (164) 
2024-11-21

>  <year>  (164) 
2024

>  <series>  (164) 
phenyl

>  <assay_id>  (164) 
ASSAY-04-09

>  <standard_relation>  (164) 
=

>  <pIC50>  (164) 
6.33

>  <project_note>  (164) 
primary measurement

>  <source_row>  (164) 
164

>  <status>  (164) 
accepted

>  <duplicate_group_size>  (164) 
2

>  <source_rows>  (164) 
164 | 230

>  <patent_ids>  (164) 
DEMO-103-A1 | DEMO-104-A1

>  <assignees>  (164) 
Kestrel BioDiscovery | Mosaic Medicines

>  <molecular_weight>  (164) 
150.225

>  <clogp>  (164) 
1.794

>  <tpsa>  (164) 
15.27

>  <hbd>  (164) 
1

>  <hba>  (164) 
2

>  <rotatable_bonds>  (164) 
2

>  <heavy_atoms>  (164) 
11

>  <rings>  (164) 
1

>  <pIC50_median>  (164) 
6.33

>  <n_measurements>  (164) 
1.0

>  <murcko_scaffold>  (164) 
c1ccccc1

>  <scaffold_id>  (164) 
S001

>  <cluster_id>  (164) 
C007

$$$$
DPC0165
     RDKit          2D

 10 10  0  0  0  0  0  0  0  0999 V2000
    3.7500   -1.2990    0.0000 C   0  0  0  0  0  0  0  0  0  0  0  0
    3.0000    0.0000    0.0000 N   0  0  0  0  0  0  0  0  0  0  0  0
    1.5000    0.0000    0.0000 C   0  0  0  0  0  0  0  0  0  0  0  0
    0.7500   -1.2990    0.0000 C   0  0  0  0  0  0  0  0  0  0  0  0
   -0.7500   -1.2990    0.0000 C   0  0  0  0  0  0  0  0  0  0  0  0
   -1.5000    0.0000    0.0000 C   0  0  0  0  0  0  0  0  0  0  0  0
   -3.0000    0.0000    0.0000 C   0  0  0  0  0  0  0  0  0  0  0  0
   -4.5000    0.0000    0.0000 N   0  0  0  0  0  0  0  0  0  0  0  0
   -0.7500    1.2990    0.0000 C   0  0  0  0  0  0  0  0  0  0  0  0
    0.7500    1.2990    0.0000 C   0  0  0  0  0  0  0  0  0  0  0  0
  1  2  1  0
  2  3  1  0
  3  4  1  0
  4  5  2  0
  5  6  1  0
  6  7  1  0
  7  8  3  0
  6  9  2  0
  9 10  1  0
 10  3  2  0
M  END
>  <compound_id>  (165) 
DPC0165

>  <smiles>  (165) 
CNc1ccc(C#N)cc1

>  <patent_id>  (165) 
DEMO-104-A1

>  <assignee>  (165) 
Mosaic Medicines

>  <publication_date>  (165) 
2024-11-21

>  <year>  (165) 
2024

>  <series>  (165) 
phenyl

>  <assay_id>  (165) 
ASSAY-04-10

>  <standard_relation>  (165) 
=

>  <pIC50>  (165) 
6.52

>  <project_note>  (165) 
primary measurement

>  <source_row>  (165) 
165

>  <status>  (165) 
accepted

>  <duplicate_group_size>  (165) 
2

>  <source_rows>  (165) 
165 | 231

>  <patent_ids>  (165) 
DEMO-103-A1 | DEMO-104-A1

>  <assignees>  (165) 
Kestrel BioDiscovery | Mosaic Medicines

>  <molecular_weight>  (165) 
132.166

>  <clogp>  (165) 
1.6

>  <tpsa>  (165) 
35.82

>  <hbd>  (165) 
1

>  <hba>  (165) 
2

>  <rotatable_bonds>  (165) 
1

>  <heavy_atoms>  (165) 
10

>  <rings>  (165) 
1

>  <pIC50_median>  (165) 
6.305

>  <n_measurements>  (165) 
2.0

>  <murcko_scaffold>  (165) 
c1ccccc1

>  <scaffold_id>  (165) 
S001

>  <cluster_id>  (165) 
C008

$$$$
DPC0166
     RDKit          2D

 12 12  0  0  0  0  0  0  0  0999 V2000
    3.7500   -1.2990    0.0000 C   0  0  0  0  0  0  0  0  0  0  0  0
    3.0000    0.0000    0.0000 N   0  0  0  0  0  0  0  0  0  0  0  0
    1.5000    0.0000    0.0000 C   0  0  0  0  0  0  0  0  0  0  0  0
    0.7500   -1.2990    0.0000 C   0  0  0  0  0  0  0  0  0  0  0  0
   -0.7500   -1.2990    0.0000 C   0  0  0  0  0  0  0  0  0  0  0  0
   -1.5000    0.0000    0.0000 C   0  0  0  0  0  0  0  0  0  0  0  0
   -3.0000    0.0000    0.0000 C   0  0  0  0  0  0  0  0  0  0  0  0
   -4.5000    0.0000    0.0000 F   0  0  0  0  0  0  0  0  0  0  0  0
   -3.0000    1.5000    0.0000 F   0  0  0  0  0  0  0  0  0  0  0  0
   -3.0000   -1.5000    0.0000 F   0  0  0  0  0  0  0  0  0  0  0  0
   -0.7500    1.2990    0.0000 C   0  0  0  0  0  0  0  0  0  0  0  0
    0.7500    1.2990    0.0000 C   0  0  0  0  0  0  0  0  0  0  0  0
  1  2  1  0
  2  3  1  0
  3  4  1  0
  4  5  2  0
  5  6  1  0
  6  7  1  0
  7  8  1  0
  7  9  1  0
  7 10  1  0
  6 11  2  0
 11 12  1  0
 12  3  2  0
M  END
>  <compound_id>  (166) 
DPC0166

>  <smiles>  (166) 
CNc1ccc(C(F)(F)F)cc1

>  <patent_id>  (166) 
DEMO-104-A1

>  <assignee>  (166) 
Mosaic Medicines

>  <publication_date>  (166) 
2024-11-21

>  <year>  (166) 
2024

>  <series>  (166) 
phenyl

>  <assay_id>  (166) 
ASSAY-04-11

>  <standard_relation>  (166) 
=

>  <pIC50>  (166) 
6.49

>  <project_note>  (166) 
primary measurement

>  <source_row>  (166) 
166

>  <status>  (166) 
accepted

>  <duplicate_group_size>  (166) 
2

>  <source_rows>  (166) 
166 | 232

>  <patent_ids>  (166) 
DEMO-103-A1 | DEMO-104-A1

>  <assignees>  (166) 
Kestrel BioDiscovery | Mosaic Medicines

>  <molecular_weight>  (166) 
175.153

>  <clogp>  (166) 
2.747

>  <tpsa>  (166) 
12.03

>  <hbd>  (166) 
1

>  <hba>  (166) 
1

>  <rotatable_bonds>  (166) 
1

>  <heavy_atoms>  (166) 
12

>  <rings>  (166) 
1

>  <pIC50_median>  (166) 
6.33

>  <n_measurements>  (166) 
2.0

>  <murcko_scaffold>  (166) 
c1ccccc1

>  <scaffold_id>  (166) 
S001

>  <cluster_id>  (166) 
C006

$$$$
DPC0167
     RDKit          2D

 11 11  0  0  0  0  0  0  0  0999 V2000
    3.7500   -1.2990    0.0000 C   0  0  0  0  0  0  0  0  0  0  0  0
    3.0000    0.0000    0.0000 N   0  0  0  0  0  0  0  0  0  0  0  0
    1.5000    0.0000    0.0000 C   0  0  0  0  0  0  0  0  0  0  0  0
    0.7500   -1.2990    0.0000 C   0  0  0  0  0  0  0  0  0  0  0  0
   -0.7500   -1.2990    0.0000 C   0  0  0  0  0  0  0  0  0  0  0  0
   -1.5000    0.0000    0.0000 C   0  0  0  0  0  0  0  0  0  0  0  0
   -3.0000    0.0000    0.0000 C   0  0  0  0  0  0  0  0  0  0  0  0
   -3.7500    1.2990    0.0000 N   0  0  0  0  0  0  0  0  0  0  0  0
   -3.7500   -1.2990    0.0000 O   0  0  0  0  0  0  0  0  0  0  0  0
   -0.7500    1.2990    0.0000 C   0  0  0  0  0  0  0  0  0  0  0  0
    0.7500    1.2990    0.0000 C   0  0  0  0  0  0  0  0  0  0  0  0
  1  2  1  0
  2  3  1  0
  3  4  1  0
  4  5  2  0
  5  6  1  0
  6  7  1  0
  7  8  1  0
  7  9  2  0
  6 10  2  0
 10 11  1  0
 11  3  2  0
M  END
>  <compound_id>  (167) 
DPC0167

>  <smiles>  (167) 
CNc1ccc(C(N)=O)cc1

>  <patent_id>  (167) 
DEMO-104-A1

>  <assignee>  (167) 
Mosaic Medicines

>  <publication_date>  (167) 
2024-11-21

>  <year>  (167) 
2024

>  <series>  (167) 
phenyl

>  <assay_id>  (167) 
ASSAY-04-12

>  <standard_relation>  (167) 
=

>  <pIC50>  (167) 
6.4

>  <project_note>  (167) 
primary measurement

>  <source_row>  (167) 
167

>  <status>  (167) 
accepted

>  <duplicate_group_size>  (167) 
2

>  <source_rows>  (167) 
167 | 233

>  <patent_ids>  (167) 
DEMO-103-A1 | DEMO-104-A1

>  <assignees>  (167) 
Kestrel BioDiscovery | Mosaic Medicines

>  <molecular_weight>  (167) 
150.181

>  <clogp>  (167) 
0.827

>  <tpsa>  (167) 
55.12

>  <hbd>  (167) 
2

>  <hba>  (167) 
2

>  <rotatable_bonds>  (167) 
2

>  <heavy_atoms>  (167) 
11

>  <rings>  (167) 
1

>  <pIC50_median>  (167) 
6.35

>  <n_measurements>  (167) 
2.0

>  <murcko_scaffold>  (167) 
c1ccccc1

>  <scaffold_id>  (167) 
S001

>  <cluster_id>  (167) 
C003

$$$$
DPC0168
     RDKit          2D

 12 12  0  0  0  0  0  0  0  0999 V2000
    5.2500   -1.2990    0.0000 C   0  0  0  0  0  0  0  0  0  0  0  0
    3.7500   -1.2990    0.0000 N   0  0  0  0  0  0  0  0  0  0  0  0
    3.0000    0.0000    0.0000 C   0  0  0  0  0  0  0  0  0  0  0  0
    3.7500    1.2990    0.0000 O   0  0  0  0  0  0  0  0  0  0  0  0
    1.5000    0.0000    0.0000 C   0  0  0  0  0  0  0  0  0  0  0  0
    0.7500   -1.2990    0.0000 C   0  0  0  0  0  0  0  0  0  0  0  0
   -0.7500   -1.2990    0.0000 C   0  0  0  0  0  0  0  0  0  0  0  0
   -1.5000    0.0000    0.0000 C   0  0  0  0  0  0  0  0  0  0  0  0
   -3.0000    0.0000    0.0000 N   0  0  0  0  0  0  0  0  0  0  0  0
   -3.7500    1.2990    0.0000 C   0  0  0  0  0  0  0  0  0  0  0  0
   -0.7500    1.2990    0.0000 C   0  0  0  0  0  0  0  0  0  0  0  0
    0.7500    1.2990    0.0000 C   0  0  0  0  0  0  0  0  0  0  0  0
  1  2  1  0
  2  3  1  0
  3  4  2  0
  3  5  1  0
  5  6  1  0
  6  7  2  0
  7  8  1  0
  8  9  1  0
  9 10  1  0
  8 11  2  0
 11 12  1  0
 12  5  2  0
M  END
>  <compound_id>  (168) 
DPC0168

>  <smiles>  (168) 
CNC(=O)c1ccc(NC)cc1

>  <patent_id>  (168) 
DEMO-104-A1

>  <assignee>  (168) 
Mosaic Medicines

>  <publication_date>  (168) 
2024-11-21

>  <year>  (168) 
2024

>  <series>  (168) 
phenyl

>  <assay_id>  (168) 
ASSAY-04-01

>  <standard_relation>  (168) 
=

>  <pIC50>  (168) 
6.37

>  <project_note>  (168) 
primary measurement

>  <source_row>  (168) 
168

>  <status>  (168) 
accepted

>  <duplicate_group_size>  (168) 
2

>  <source_rows>  (168) 
168 | 234

>  <patent_ids>  (168) 
DEMO-103-A1 | DEMO-104-A1

>  <assignees>  (168) 
Kestrel BioDiscovery | Mosaic Medicines

>  <molecular_weight>  (168) 
164.208

>  <clogp>  (168) 
1.088

>  <tpsa>  (168) 
41.13

>  <hbd>  (168) 
2

>  <hba>  (168) 
2

>  <rotatable_bonds>  (168) 
2

>  <heavy_atoms>  (168) 
12

>  <rings>  (168) 
1

>  <pIC50_median>  (168) 
6.43

>  <n_measurements>  (168) 
2.0

>  <murcko_scaffold>  (168) 
c1ccccc1

>  <scaffold_id>  (168) 
S001

>  <cluster_id>  (168) 
C010

$$$$
DPC0169
     RDKit          2D

 12 12  0  0  0  0  0  0  0  0999 V2000
    3.7500   -1.2990    0.0000 C   0  0  0  0  0  0  0  0  0  0  0  0
    3.0000    0.0000    0.0000 N   0  0  0  0  0  0  0  0  0  0  0  0
    1.5000    0.0000    0.0000 C   0  0  0  0  0  0  0  0  0  0  0  0
    0.7500   -1.2990    0.0000 C   0  0  0  0  0  0  0  0  0  0  0  0
   -0.7500   -1.2990    0.0000 C   0  0  0  0  0  0  0  0  0  0  0  0
   -1.5000    0.0000    0.0000 C   0  0  0  0  0  0  0  0  0  0  0  0
   -3.0000    0.0000    0.0000 S   0  0  0  0  0  0  0  0  0  0  0  0
   -4.5000    0.0000    0.0000 N   0  0  0  0  0  0  0  0  0  0  0  0
   -3.0000    1.5000    0.0000 O   0  0  0  0  0  0  0  0  0  0  0  0
   -3.0000   -1.5000    0.0000 O   0  0  0  0  0  0  0  0  0  0  0  0
   -0.7500    1.2990    0.0000 C   0  0  0  0  0  0  0  0  0  0  0  0
    0.7500    1.2990    0.0000 C   0  0  0  0  0  0  0  0  0  0  0  0
  1  2  1  0
  2  3  1  0
  3  4  1  0
  4  5  2  0
  5  6  1  0
  6  7  1  0
  7  8  1  0
  7  9  2  0
  7 10  2  0
  6 11  2  0
 11 12  1  0
 12  3  2  0
M  END
>  <compound_id>  (169) 
DPC0169

>  <smiles>  (169) 
CNc1ccc(S(N)(=O)=O)cc1

>  <patent_id>  (169) 
DEMO-104-A1

>  <assignee>  (169) 
Mosaic Medicines

>  <publication_date>  (169) 
2024-11-21

>  <year>  (169) 
2024

>  <series>  (169) 
phenyl

>  <assay_id>  (169) 
ASSAY-04-02

>  <standard_relation>  (169) 
=

>  <pIC50>  (169) 
6.18

>  <project_note>  (169) 
primary measurement

>  <source_row>  (169) 
169

>  <status>  (169) 
accepted

>  <duplicate_group_size>  (169) 
1

>  <source_rows>  (169) 
169

>  <patent_ids>  (169) 
DEMO-104-A1

>  <assignees>  (169) 
Mosaic Medicines

>  <molecular_weight>  (169) 
186.236

>  <clogp>  (169) 
0.376

>  <tpsa>  (169) 
72.19

>  <hbd>  (169) 
2

>  <hba>  (169) 
3

>  <rotatable_bonds>  (169) 
2

>  <heavy_atoms>  (169) 
12

>  <rings>  (169) 
1

>  <pIC50_median>  (169) 
6.18

>  <n_measurements>  (169) 
1.0

>  <murcko_scaffold>  (169) 
c1ccccc1

>  <scaffold_id>  (169) 
S001

>  <cluster_id>  (169) 
C014

$$$$
DPC0170
     RDKit          2D

 13 13  0  0  0  0  0  0  0  0999 V2000
    3.7500   -1.2990    0.0000 C   0  0  0  0  0  0  0  0  0  0  0  0
    3.0000    0.0000    0.0000 N   0  0  0  0  0  0  0  0  0  0  0  0
    1.5000    0.0000    0.0000 C   0  0  0  0  0  0  0  0  0  0  0  0
    0.7500   -1.2990    0.0000 C   0  0  0  0  0  0  0  0  0  0  0  0
   -0.7500   -1.2990    0.0000 C   0  0  0  0  0  0  0  0  0  0  0  0
   -1.5000    0.0000    0.0000 C   0  0  0  0  0  0  0  0  0  0  0  0
   -3.0000    0.0000    0.0000 O   0  0  0  0  0  0  0  0  0  0  0  0
   -3.7500    1.2990    0.0000 C   0  0  0  0  0  0  0  0  0  0  0  0
   -4.5000    2.5981    0.0000 F   0  0  0  0  0  0  0  0  0  0  0  0
   -5.0490    0.5490    0.0000 F   0  0  0  0  0  0  0  0  0  0  0  0
   -2.4510    2.0490    0.0000 F   0  0  0  0  0  0  0  0  0  0  0  0
   -0.7500    1.2990    0.0000 C   0  0  0  0  0  0  0  0  0  0  0  0
    0.7500    1.2990    0.0000 C   0  0  0  0  0  0  0  0  0  0  0  0
  1  2  1  0
  2  3  1  0
  3  4  1  0
  4  5  2  0
  5  6  1  0
  6  7  1  0
  7  8  1  0
  8  9  1  0
  8 10  1  0
  8 11  1  0
  6 12  2  0
 12 13  1  0
 13  3  2  0
M  END
>  <compound_id>  (170) 
DPC0170

>  <smiles>  (170) 
CNc1ccc(OC(F)(F)F)cc1

>  <patent_id>  (170) 
DEMO-104-A1

>  <assignee>  (170) 
Mosaic Medicines

>  <publication_date>  (170) 
2024-11-21

>  <year>  (170) 
2024

>  <series>  (170) 
phenyl

>  <assay_id>  (170) 
ASSAY-04-03

>  <standard_relation>  (170) 
=

>  <pIC50>  (170) 
6.18

>  <project_note>  (170) 
primary measurement

>  <source_row>  (170) 
170

>  <status>  (170) 
accepted

>  <duplicate_group_size>  (170) 
1

>  <source_rows>  (170) 
170

>  <patent_ids>  (170) 
DEMO-104-A1

>  <assignees>  (170) 
Mosaic Medicines

>  <molecular_weight>  (170) 
191.152

>  <clogp>  (170) 
2.627

>  <tpsa>  (170) 
21.26

>  <hbd>  (170) 
1

>  <hba>  (170) 
2

>  <rotatable_bonds>  (170) 
2

>  <heavy_atoms>  (170) 
13

>  <rings>  (170) 
1

>  <pIC50_median>  (170) 
6.18

>  <n_measurements>  (170) 
1.0

>  <murcko_scaffold>  (170) 
c1ccccc1

>  <scaffold_id>  (170) 
S001

>  <cluster_id>  (170) 
C013

$$$$
DPC0171
     RDKit          2D

 14 15  0  0  0  0  0  0  0  0999 V2000
    3.7500   -1.2990    0.0000 C   0  0  0  0  0  0  0  0  0  0  0  0
    3.0000    0.0000    0.0000 N   0  0  0  0  0  0  0  0  0  0  0  0
    1.5000    0.0000    0.0000 C   0  0  0  0  0  0  0  0  0  0  0  0
    0.7500   -1.2990    0.0000 C   0  0  0  0  0  0  0  0  0  0  0  0
   -0.7500   -1.2990    0.0000 C   0  0  0  0  0  0  0  0  0  0  0  0
   -1.5000    0.0000    0.0000 C   0  0  0  0  0  0  0  0  0  0  0  0
   -3.0000    0.0000    0.0000 N   0  0  0  0  0  0  0  0  0  0  0  0
   -3.7500    1.2990    0.0000 C   0  0  0  0  0  0  0  0  0  0  0  0
   -5.2500    1.2990    0.0000 C   0  0  0  0  0  0  0  0  0  0  0  0
   -6.0000    0.0000    0.0000 O   0  0  0  0  0  0  0  0  0  0  0  0
   -5.2500   -1.2990    0.0000 C   0  0  0  0  0  0  0  0  0  0  0  0
   -3.7500   -1.2990    0.0000 C   0  0  0  0  0  0  0  0  0  0  0  0
   -0.7500    1.2990    0.0000 C   0  0  0  0  0  0  0  0  0  0  0  0
    0.7500    1.2990    0.0000 C   0  0  0  0  0  0  0  0  0  0  0  0
  1  2  1  0
  2  3  1  0
  3  4  1  0
  4  5  2  0
  5  6  1  0
  6  7  1  0
  7  8  1  0
  8  9  1  0
  9 10  1  0
 10 11  1  0
 11 12  1  0
  6 13  2  0
 13 14  1  0
 14  3  2  0
 12  7  1  0
M  END
>  <compound_id>  (171) 
DPC0171

>  <smiles>  (171) 
CNc1ccc(N2CCOCC2)cc1

>  <patent_id>  (171) 
DEMO-104-A1

>  <assignee>  (171) 
Mosaic Medicines

>  <publication_date>  (171) 
2024-11-21

>  <year>  (171) 
2024

>  <series>  (171) 
phenyl

>  <assay_id>  (171) 
ASSAY-04-04

>  <standard_relation>  (171) 
=

>  <pIC50>  (171) 
6.45

>  <project_note>  (171) 
primary measurement

>  <source_row>  (171) 
171

>  <status>  (171) 
accepted

>  <duplicate_group_size>  (171) 
1

>  <source_rows>  (171) 
171

>  <patent_ids>  (171) 
DEMO-104-A1

>  <assignees>  (171) 
Mosaic Medicines

>  <molecular_weight>  (171) 
192.262

>  <clogp>  (171) 
1.565

>  <tpsa>  (171) 
24.5

>  <hbd>  (171) 
1

>  <hba>  (171) 
3

>  <rotatable_bonds>  (171) 
2

>  <heavy_atoms>  (171) 
14

>  <rings>  (171) 
2

>  <pIC50_median>  (171) 
6.45

>  <n_measurements>  (171) 
1.0

>  <murcko_scaffold>  (171) 
c1ccc(N2CCOCC2)cc1

>  <scaffold_id>  (171) 
S002

>  <cluster_id>  (171) 
C011

$$$$
DPC0172
     RDKit          2D

 11 12  0  0  0  0  0  0  0  0999 V2000
    3.7500   -1.2990    0.0000 C   0  0  0  0  0  0  0  0  0  0  0  0
    3.0000    0.0000    0.0000 N   0  0  0  0  0  0  0  0  0  0  0  0
    1.5000    0.0000    0.0000 C   0  0  0  0  0  0  0  0  0  0  0  0
    0.7500   -1.2990    0.0000 C   0  0  0  0  0  0  0  0  0  0  0  0
   -0.7500   -1.2990    0.0000 C   0  0  0  0  0  0  0  0  0  0  0  0
   -1.5000    0.0000    0.0000 C   0  0  0  0  0  0  0  0  0  0  0  0
   -3.0000    0.0000    0.0000 C   0  0  0  0  0  0  0  0  0  0  0  0
   -4.2990   -0.7500    0.0000 C   0  0  0  0  0  0  0  0  0  0  0  0
   -4.2990    0.7500    0.0000 C   0  0  0  0  0  0  0  0  0  0  0  0
   -0.7500    1.2990    0.0000 C   0  0  0  0  0  0  0  0  0  0  0  0
    0.7500    1.2990    0.0000 C   0  0  0  0  0  0  0  0  0  0  0  0
  1  2  1  0
  2  3  1  0
  3  4  1  0
  4  5  2  0
  5  6  1  0
  6  7  1  0
  7  8  1  0
  8  9  1  0
  6 10  2  0
 10 11  1  0
 11  3  2  0
  9  7  1  0
M  END
>  <compound_id>  (172) 
DPC0172

>  <smiles>  (172) 
CNc1ccc(C2CC2)cc1

>  <patent_id>  (172) 
DEMO-104-A1

>  <assignee>  (172) 
Mosaic Medicines

>  <publication_date>  (172) 
2024-11-21

>  <year>  (172) 
2024

>  <series>  (172) 
phenyl

>  <assay_id>  (172) 
ASSAY-04-05

>  <standard_relation>  (172) 
=

>  <pIC50>  (172) 
6.27

>  <project_note>  (172) 
primary measurement

>  <source_row>  (172) 
172

>  <status>  (172) 
accepted

>  <duplicate_group_size>  (172) 
1

>  <source_rows>  (172) 
172

>  <patent_ids>  (172) 
DEMO-104-A1

>  <assignees>  (172) 
Mosaic Medicines

>  <molecular_weight>  (172) 
147.221

>  <clogp>  (172) 
2.606

>  <tpsa>  (172) 
12.03

>  <hbd>  (172) 
1

>  <hba>  (172) 
1

>  <rotatable_bonds>  (172) 
2

>  <heavy_atoms>  (172) 
11

>  <rings>  (172) 
2

>  <pIC50_median>  (172) 
6.27

>  <n_measurements>  (172) 
1.0

>  <murcko_scaffold>  (172) 
c1ccc(C2CC2)cc1

>  <scaffold_id>  (172) 
S003

>  <cluster_id>  (172) 
C008

$$$$
DPC0173
     RDKit          2D

 14 15  0  0  0  0  0  0  0  0999 V2000
    3.7500   -1.2990    0.0000 C   0  0  0  0  0  0  0  0  0  0  0  0
    3.0000    0.0000    0.0000 N   0  0  0  0  0  0  0  0  0  0  0  0
    1.5000    0.0000    0.0000 C   0  0  0  0  0  0  0  0  0  0  0  0
    0.7500   -1.2990    0.0000 C   0  0  0  0  0  0  0  0  0  0  0  0
   -0.7500   -1.2990    0.0000 C   0  0  0  0  0  0  0  0  0  0  0  0
   -1.5000    0.0000    0.0000 C   0  0  0  0  0  0  0  0  0  0  0  0
   -3.0000    0.0000    0.0000 C   0  0  0  0  0  0  0  0  0  0  0  0
   -3.7500    1.2990    0.0000 C   0  0  0  0  0  0  0  0  0  0  0  0
   -5.2500    1.2990    0.0000 C   0  0  0  0  0  0  0  0  0  0  0  0
   -6.0000    0.0000    0.0000 C   0  0  0  0  0  0  0  0  0  0  0  0
   -5.2500   -1.2990    0.0000 C   0  0  0  0  0  0  0  0  0  0  0  0
   -3.7500   -1.2990    0.0000 C   0  0  0  0  0  0  0  0  0  0  0  0
   -0.7500    1.2990    0.0000 C   0  0  0  0  0  0  0  0  0  0  0  0
    0.7500    1.2990    0.0000 C   0  0  0  0  0  0  0  0  0  0  0  0
  1  2  1  0
  2  3  1  0
  3  4  1  0
  4  5  2  0
  5  6  1  0
  6  7  1  0
  7  8  1  0
  8  9  1  0
  9 10  1  0
 10 11  1  0
 11 12  1  0
  6 13  2  0
 13 14  1  0
 14  3  2  0
 12  7  1  0
M  END
>  <compound_id>  (173) 
DPC0173

>  <smiles>  (173) 
CNc1ccc(C2CCCCC2)cc1

>  <patent_id>  (173) 
DEMO-104-A1

>  <assignee>  (173) 
Mosaic Medicines

>  <publication_date>  (173) 
2024-11-21

>  <year>  (173) 
2024

>  <series>  (173) 
phenyl

>  <assay_id>  (173) 
ASSAY-04-06

>  <standard_relation>  (173) 
=

>  <pIC50>  (173) 
6.51

>  <project_note>  (173) 
primary measurement

>  <source_row>  (173) 
173

>  <status>  (173) 
accepted

>  <duplicate_group_size>  (173) 
1

>  <source_rows>  (173) 
173

>  <patent_ids>  (173) 
DEMO-104-A1

>  <assignees>  (173) 
Mosaic Medicines

>  <molecular_weight>  (173) 
189.302

>  <clogp>  (173) 
3.776

>  <tpsa>  (173) 
12.03

>  <hbd>  (173) 
1

>  <hba>  (173) 
1

>  <rotatable_bonds>  (173) 
2

>  <heavy_atoms>  (173) 
14

>  <rings>  (173) 
2

>  <pIC50_median>  (173) 
6.51

>  <n_measurements>  (173) 
1.0

>  <murcko_scaffold>  (173) 
c1ccc(C2CCCCC2)cc1

>  <scaffold_id>  (173) 
S004

>  <cluster_id>  (173) 
C012

$$$$
DPC0174
     RDKit          2D

  9  9  0  0  0  0  0  0  0  0999 V2000
    3.7500   -1.2990    0.0000 C   0  0  0  0  0  0  0  0  0  0  0  0
    3.0000    0.0000    0.0000 N   0  0  0  0  0  0  0  0  0  0  0  0
    1.5000    0.0000    0.0000 C   0  0  0  0  0  0  0  0  0  0  0  0
    0.7500   -1.2990    0.0000 C   0  0  0  0  0  0  0  0  0  0  0  0
   -0.7500   -1.2990    0.0000 C   0  0  0  0  0  0  0  0  0  0  0  0
   -1.5000    0.0000    0.0000 C   0  0  0  0  0  0  0  0  0  0  0  0
   -3.0000    0.0000    0.0000 O   0  0  0  0  0  0  0  0  0  0  0  0
   -0.7500    1.2990    0.0000 C   0  0  0  0  0  0  0  0  0  0  0  0
    0.7500    1.2990    0.0000 C   0  0  0  0  0  0  0  0  0  0  0  0
  1  2  1  0
  2  3  1  0
  3  4  1  0
  4  5  2  0
  5  6  1  0
  6  7  1  0
  6  8  2  0
  8  9  1  0
  9  3  2  0
M  END
>  <compound_id>  (174) 
DPC0174

>  <smiles>  (174) 
CNc1ccc(O)cc1

>  <patent_id>  (174) 
DEMO-104-A1

>  <assignee>  (174) 
Mosaic Medicines

>  <publication_date>  (174) 
2024-11-21

>  <year>  (174) 
2024

>  <series>  (174) 
phenyl

>  <assay_id>  (174) 
ASSAY-04-07

>  <standard_relation>  (174) 
=

>  <pIC50>  (174) 
6.37

>  <project_note>  (174) 
primary measurement

>  <source_row>  (174) 
174

>  <status>  (174) 
accepted

>  <duplicate_group_size>  (174) 
1

>  <source_rows>  (174) 
174

>  <patent_ids>  (174) 
DEMO-104-A1

>  <assignees>  (174) 
Mosaic Medicines

>  <molecular_weight>  (174) 
123.155

>  <clogp>  (174) 
1.434

>  <tpsa>  (174) 
32.26

>  <hbd>  (174) 
2

>  <hba>  (174) 
2

>  <rotatable_bonds>  (174) 
1

>  <heavy_atoms>  (174) 
9

>  <rings>  (174) 
1

>  <pIC50_median>  (174) 
6.37

>  <n_measurements>  (174) 
1.0

>  <murcko_scaffold>  (174) 
c1ccccc1

>  <scaffold_id>  (174) 
S001

>  <cluster_id>  (174) 
C008

$$$$
DPC0175
     RDKit          2D

 11 11  0  0  0  0  0  0  0  0999 V2000
    3.7500   -1.2990    0.0000 C   0  0  0  0  0  0  0  0  0  0  0  0
    3.0000    0.0000    0.0000 N   0  0  0  0  0  0  0  0  0  0  0  0
    1.5000    0.0000    0.0000 C   0  0  0  0  0  0  0  0  0  0  0  0
    0.7500   -1.2990    0.0000 C   0  0  0  0  0  0  0  0  0  0  0  0
   -0.7500   -1.2990    0.0000 C   0  0  0  0  0  0  0  0  0  0  0  0
   -1.5000    0.0000    0.0000 C   0  0  0  0  0  0  0  0  0  0  0  0
   -3.0000    0.0000    0.0000 C   0  0  0  0  0  0  0  0  0  0  0  0
   -3.7500   -1.2990    0.0000 O   0  0  0  0  0  0  0  0  0  0  0  0
   -3.7500    1.2990    0.0000 O   0  0  0  0  0  0  0  0  0  0  0  0
   -0.7500    1.2990    0.0000 C   0  0  0  0  0  0  0  0  0  0  0  0
    0.7500    1.2990    0.0000 C   0  0  0  0  0  0  0  0  0  0  0  0
  1  2  1  0
  2  3  1  0
  3  4  1  0
  4  5  2  0
  5  6  1  0
  6  7  1  0
  7  8  2  0
  7  9  1  0
  6 10  2  0
 10 11  1  0
 11  3  2  0
M  END
>  <compound_id>  (175) 
DPC0175

>  <smiles>  (175) 
CNc1ccc(C(=O)O)cc1

>  <patent_id>  (175) 
DEMO-104-A1

>  <assignee>  (175) 
Mosaic Medicines

>  <publication_date>  (175) 
2024-11-21

>  <year>  (175) 
2024

>  <series>  (175) 
phenyl

>  <assay_id>  (175) 
ASSAY-04-08

>  <standard_relation>  (175) 
=

>  <pIC50>  (175) 
6.4

>  <project_note>  (175) 
primary measurement

>  <source_row>  (175) 
175

>  <status>  (175) 
accepted

>  <duplicate_group_size>  (175) 
1

>  <source_rows>  (175) 
175

>  <patent_ids>  (175) 
DEMO-104-A1

>  <assignees>  (175) 
Mosaic Medicines

>  <molecular_weight>  (175) 
151.165

>  <clogp>  (175) 
1.426

>  <tpsa>  (175) 
49.33

>  <hbd>  (175) 
2

>  <hba>  (175) 
2

>  <rotatable_bonds>  (175) 
2

>  <heavy_atoms>  (175) 
11

>  <rings>  (175) 
1

>  <pIC50_median>  (175) 
6.4

>  <n_measurements>  (175) 
1.0

>  <murcko_scaffold>  (175) 
c1ccccc1

>  <scaffold_id>  (175) 
S001

>  <cluster_id>  (175) 
C008

$$$$
DPC0176
     RDKit          2D

 12 12  0  0  0  0  0  0  0  0999 V2000
    3.7500   -1.2990    0.0000 C   0  0  0  0  0  0  0  0  0  0  0  0
    3.0000    0.0000    0.0000 N   0  0  0  0  0  0  0  0  0  0  0  0
    3.7500    1.2990    0.0000 C   0  0  0  0  0  0  0  0  0  0  0  0
    1.5000    0.0000    0.0000 C   0  0  0  0  0  0  0  0  0  0  0  0
    0.7500   -1.2990    0.0000 C   0  0  0  0  0  0  0  0  0  0  0  0
   -0.7500   -1.2990    0.0000 C   0  0  0  0  0  0  0  0  0  0  0  0
   -1.5000    0.0000    0.0000 C   0  0  0  0  0  0  0  0  0  0  0  0
   -3.0000    0.0000    0.0000 N   0  0  0  0  0  0  0  0  0  0  0  0
   -3.7500    1.2990    0.0000 C   0  0  0  0  0  0  0  0  0  0  0  0
   -3.7500   -1.2990    0.0000 C   0  0  0  0  0  0  0  0  0  0  0  0
   -0.7500    1.2990    0.0000 C   0  0  0  0  0  0  0  0  0  0  0  0
    0.7500    1.2990    0.0000 C   0  0  0  0  0  0  0  0  0  0  0  0
  1  2  1  0
  2  3  1  0
  2  4  1  0
  4  5  1  0
  5  6  2  0
  6  7  1  0
  7  8  1  0
  8  9  1  0
  8 10  1  0
  7 11  2  0
 11 12  1  0
 12  4  2  0
M  END
>  <compound_id>  (176) 
DPC0176

>  <smiles>  (176) 
CN(C)c1ccc(N(C)C)cc1

>  <patent_id>  (176) 
DEMO-104-A1

>  <assignee>  (176) 
Mosaic Medicines

>  <publication_date>  (176) 
2024-11-21

>  <year>  (176) 
2024

>  <series>  (176) 
phenyl

>  <assay_id>  (176) 
ASSAY-04-09

>  <standard_relation>  (176) 
=

>  <pIC50>  (176) 
6.54

>  <project_note>  (176) 
primary measurement

>  <source_row>  (176) 
176

>  <status>  (176) 
accepted

>  <duplicate_group_size>  (176) 
1

>  <source_rows>  (176) 
176

>  <patent_ids>  (176) 
DEMO-104-A1

>  <assignees>  (176) 
Mosaic Medicines

>  <molecular_weight>  (176) 
164.252

>  <clogp>  (176) 
1.819

>  <tpsa>  (176) 
6.48

>  <hbd>  (176) 
0

>  <hba>  (176) 
2

>  <rotatable_bonds>  (176) 
2

>  <heavy_atoms>  (176) 
12

>  <rings>  (176) 
1

>  <pIC50_median>  (176) 
6.54

>  <n_measurements>  (176) 
1.0

>  <murcko_scaffold>  (176) 
c1ccccc1

>  <scaffold_id>  (176) 
S001

>  <cluster_id>  (176) 
C007

$$$$
DPC0177
     RDKit          2D

 11 11  0  0  0  0  0  0  0  0999 V2000
    3.7500   -1.2990    0.0000 C   0  0  0  0  0  0  0  0  0  0  0  0
    3.0000    0.0000    0.0000 N   0  0  0  0  0  0  0  0  0  0  0  0
    3.7500    1.2990    0.0000 C   0  0  0  0  0  0  0  0  0  0  0  0
    1.5000    0.0000    0.0000 C   0  0  0  0  0  0  0  0  0  0  0  0
    0.7500   -1.2990    0.0000 C   0  0  0  0  0  0  0  0  0  0  0  0
   -0.7500   -1.2990    0.0000 C   0  0  0  0  0  0  0  0  0  0  0  0
   -1.5000    0.0000    0.0000 C   0  0  0  0  0  0  0  0  0  0  0  0
   -3.0000    0.0000    0.0000 C   0  0  0  0  0  0  0  0  0  0  0  0
   -4.5000    0.0000    0.0000 N   0  0  0  0  0  0  0  0  0  0  0  0
   -0.7500    1.2990    0.0000 C   0  0  0  0  0  0  0  0  0  0  0  0
    0.7500    1.2990    0.0000 C   0  0  0  0  0  0  0  0  0  0  0  0
  1  2  1  0
  2  3  1  0
  2  4  1  0
  4  5  1  0
  5  6  2  0
  6  7  1  0
  7  8  1  0
  8  9  3  0
  7 10  2  0
 10 11  1  0
 11  4  2  0
M  END
>  <compound_id>  (177) 
DPC0177

>  <smiles>  (177) 
CN(C)c1ccc(C#N)cc1

>  <patent_id>  (177) 
DEMO-104-A1

>  <assignee>  (177) 
Mosaic Medicines

>  <publication_date>  (177) 
2024-11-21

>  <year>  (177) 
2024

>  <series>  (177) 
phenyl

>  <assay_id>  (177) 
ASSAY-04-10

>  <standard_relation>  (177) 
=

>  <pIC50>  (177) 
6.48

>  <project_note>  (177) 
primary measurement

>  <source_row>  (177) 
177

>  <status>  (177) 
accepted

>  <duplicate_group_size>  (177) 
1

>  <source_rows>  (177) 
177

>  <patent_ids>  (177) 
DEMO-104-A1

>  <assignees>  (177) 
Mosaic Medicines

>  <molecular_weight>  (177) 
146.193

>  <clogp>  (177) 
1.624

>  <tpsa>  (177) 
27.03

>  <hbd>  (177) 
0

>  <hba>  (177) 
2

>  <rotatable_bonds>  (177) 
1

>  <heavy_atoms>  (177) 
11

>  <rings>  (177) 
1

>  <pIC50_median>  (177) 
6.48

>  <n_measurements>  (177) 
1.0

>  <murcko_scaffold>  (177) 
c1ccccc1

>  <scaffold_id>  (177) 
S001

>  <cluster_id>  (177) 
C007

$$$$
DPC0178
     RDKit          2D

 13 13  0  0  0  0  0  0  0  0999 V2000
    3.7500   -1.2990    0.0000 C   0  0  0  0  0  0  0  0  0  0  0  0
    3.0000    0.0000    0.0000 N   0  0  0  0  0  0  0  0  0  0  0  0
    3.7500    1.2990    0.0000 C   0  0  0  0  0  0  0  0  0  0  0  0
    1.5000    0.0000    0.0000 C   0  0  0  0  0  0  0  0  0  0  0  0
    0.7500   -1.2990    0.0000 C   0  0  0  0  0  0  0  0  0  0  0  0
   -0.7500   -1.2990    0.0000 C   0  0  0  0  0  0  0  0  0  0  0  0
   -1.5000    0.0000    0.0000 C   0  0  0  0  0  0  0  0  0  0  0  0
   -3.0000    0.0000    0.0000 C   0  0  0  0  0  0  0  0  0  0  0  0
   -4.5000    0.0000    0.0000 F   0  0  0  0  0  0  0  0  0  0  0  0
   -3.0000    1.5000    0.0000 F   0  0  0  0  0  0  0  0  0  0  0  0
   -3.0000   -1.5000    0.0000 F   0  0  0  0  0  0  0  0  0  0  0  0
   -0.7500    1.2990    0.0000 C   0  0  0  0  0  0  0  0  0  0  0  0
    0.7500    1.2990    0.0000 C   0  0  0  0  0  0  0  0  0  0  0  0
  1  2  1  0
  2  3  1  0
  2  4  1  0
  4  5  1  0
  5  6  2  0
  6  7  1  0
  7  8  1  0
  8  9  1  0
  8 10  1  0
  8 11  1  0
  7 12  2  0
 12 13  1  0
 13  4  2  0
M  END
>  <compound_id>  (178) 
DPC0178

>  <smiles>  (178) 
CN(C)c1ccc(C(F)(F)F)cc1

>  <patent_id>  (178) 
DEMO-104-A1

>  <assignee>  (178) 
Mosaic Medicines

>  <publication_date>  (178) 
2024-11-21

>  <year>  (178) 
2024

>  <series>  (178) 
phenyl

>  <assay_id>  (178) 
ASSAY-04-11

>  <standard_relation>  (178) 
=

>  <pIC50>  (178) 
6.31

>  <project_note>  (178) 
primary measurement

>  <source_row>  (178) 
178

>  <status>  (178) 
accepted

>  <duplicate_group_size>  (178) 
1

>  <source_rows>  (178) 
178

>  <patent_ids>  (178) 
DEMO-104-A1

>  <assignees>  (178) 
Mosaic Medicines

>  <molecular_weight>  (178) 
189.18

>  <clogp>  (178) 
2.771

>  <tpsa>  (178) 
3.24

>  <hbd>  (178) 
0

>  <hba>  (178) 
1

>  <rotatable_bonds>  (178) 
1

>  <heavy_atoms>  (178) 
13

>  <rings>  (178) 
1

>  <pIC50_median>  (178) 
6.31

>  <n_measurements>  (178) 
1.0

>  <murcko_scaffold>  (178) 
c1ccccc1

>  <scaffold_id>  (178) 
S001

>  <cluster_id>  (178) 
C006

$$$$
DPC0179
     RDKit          2D

 12 12  0  0  0  0  0  0  0  0999 V2000
    3.7500   -1.2990    0.0000 C   0  0  0  0  0  0  0  0  0  0  0  0
    3.0000    0.0000    0.0000 N   0  0  0  0  0  0  0  0  0  0  0  0
    3.7500    1.2990    0.0000 C   0  0  0  0  0  0  0  0  0  0  0  0
    1.5000    0.0000    0.0000 C   0  0  0  0  0  0  0  0  0  0  0  0
    0.7500   -1.2990    0.0000 C   0  0  0  0  0  0  0  0  0  0  0  0
   -0.7500   -1.2990    0.0000 C   0  0  0  0  0  0  0  0  0  0  0  0
   -1.5000    0.0000    0.0000 C   0  0  0  0  0  0  0  0  0  0  0  0
   -3.0000    0.0000    0.0000 C   0  0  0  0  0  0  0  0  0  0  0  0
   -3.7500    1.2990    0.0000 N   0  0  0  0  0  0  0  0  0  0  0  0
   -3.7500   -1.2990    0.0000 O   0  0  0  0  0  0  0  0  0  0  0  0
   -0.7500    1.2990    0.0000 C   0  0  0  0  0  0  0  0  0  0  0  0
    0.7500    1.2990    0.0000 C   0  0  0  0  0  0  0  0  0  0  0  0
  1  2  1  0
  2  3  1  0
  2  4  1  0
  4  5  1  0
  5  6  2  0
  6  7  1  0
  7  8  1  0
  8  9  1  0
  8 10  2  0
  7 11  2  0
 11 12  1  0
 12  4  2  0
M  END
>  <compound_id>  (179) 
DPC0179

>  <smiles>  (179) 
CN(C)c1ccc(C(N)=O)cc1

>  <patent_id>  (179) 
DEMO-104-A1

>  <assignee>  (179) 
Mosaic Medicines

>  <publication_date>  (179) 
2024-11-21

>  <year>  (179) 
2024

>  <series>  (179) 
phenyl

>  <assay_id>  (179) 
ASSAY-04-12

>  <standard_relation>  (179) 
=

>  <pIC50>  (179) 
6.23

>  <project_note>  (179) 
primary measurement

>  <source_row>  (179) 
179

>  <status>  (179) 
accepted

>  <duplicate_group_size>  (179) 
1

>  <source_rows>  (179) 
179

>  <patent_ids>  (179) 
DEMO-104-A1

>  <assignees>  (179) 
Mosaic Medicines

>  <molecular_weight>  (179) 
164.208

>  <clogp>  (179) 
0.852

>  <tpsa>  (179) 
46.33

>  <hbd>  (179) 
1

>  <hba>  (179) 
2

>  <rotatable_bonds>  (179) 
2

>  <heavy_atoms>  (179) 
12

>  <rings>  (179) 
1

>  <pIC50_median>  (179) 
6.23

>  <n_measurements>  (179) 
1.0

>  <murcko_scaffold>  (179) 
c1ccccc1

>  <scaffold_id>  (179) 
S001

>  <cluster_id>  (179) 
C003

$$$$
DPC0180
     RDKit          2D

 13 13  0  0  0  0  0  0  0  0999 V2000
    5.2500   -1.2990    0.0000 C   0  0  0  0  0  0  0  0  0  0  0  0
    3.7500   -1.2990    0.0000 N   0  0  0  0  0  0  0  0  0  0  0  0
    3.0000    0.0000    0.0000 C   0  0  0  0  0  0  0  0  0  0  0  0
    3.7500    1.2990    0.0000 O   0  0  0  0  0  0  0  0  0  0  0  0
    1.5000    0.0000    0.0000 C   0  0  0  0  0  0  0  0  0  0  0  0
    0.7500   -1.2990    0.0000 C   0  0  0  0  0  0  0  0  0  0  0  0
   -0.7500   -1.2990    0.0000 C   0  0  0  0  0  0  0  0  0  0  0  0
   -1.5000    0.0000    0.0000 C   0  0  0  0  0  0  0  0  0  0  0  0
   -3.0000    0.0000    0.0000 N   0  0  0  0  0  0  0  0  0  0  0  0
   -3.7500    1.2990    0.0000 C   0  0  0  0  0  0  0  0  0  0  0  0
   -3.7500   -1.2990    0.0000 C   0  0  0  0  0  0  0  0  0  0  0  0
   -0.7500    1.2990    0.0000 C   0  0  0  0  0  0  0  0  0  0  0  0
    0.7500    1.2990    0.0000 C   0  0  0  0  0  0  0  0  0  0  0  0
  1  2  1  0
  2  3  1  0
  3  4  2  0
  3  5  1  0
  5  6  1  0
  6  7  2  0
  7  8  1  0
  8  9  1  0
  9 10  1  0
  9 11  1  0
  8 12  2  0
 12 13  1  0
 13  5  2  0
M  END
>  <compound_id>  (180) 
DPC0180

>  <smiles>  (180) 
CNC(=O)c1ccc(N(C)C)cc1

>  <patent_id>  (180) 
DEMO-104-A1

>  <assignee>  (180) 
Mosaic Medicines

>  <publication_date>  (180) 
2024-11-21

>  <year>  (180) 
2024

>  <series>  (180) 
phenyl

>  <assay_id>  (180) 
ASSAY-04-01

>  <standard_relation>  (180) 
=

>  <pIC50>  (180) 
6.35

>  <project_note>  (180) 
primary measurement

>  <source_row>  (180) 
180

>  <status>  (180) 
accepted

>  <duplicate_group_size>  (180) 
1

>  <source_rows>  (180) 
180

>  <patent_ids>  (180) 
DEMO-104-A1

>  <assignees>  (180) 
Mosaic Medicines

>  <molecular_weight>  (180) 
178.235

>  <clogp>  (180) 
1.112

>  <tpsa>  (180) 
32.34

>  <hbd>  (180) 
1

>  <hba>  (180) 
2

>  <rotatable_bonds>  (180) 
2

>  <heavy_atoms>  (180) 
13

>  <rings>  (180) 
1

>  <pIC50_median>  (180) 
6.35

>  <n_measurements>  (180) 
1.0

>  <murcko_scaffold>  (180) 
c1ccccc1

>  <scaffold_id>  (180) 
S001

>  <cluster_id>  (180) 
C010

$$$$
DPC0181
     RDKit          2D

 13 13  0  0  0  0  0  0  0  0999 V2000
    3.7500   -1.2990    0.0000 C   0  0  0  0  0  0  0  0  0  0  0  0
    3.0000    0.0000    0.0000 N   0  0  0  0  0  0  0  0  0  0  0  0
    3.7500    1.2990    0.0000 C   0  0  0  0  0  0  0  0  0  0  0  0
    1.5000    0.0000    0.0000 C   0  0  0  0  0  0  0  0  0  0  0  0
    0.7500   -1.2990    0.0000 C   0  0  0  0  0  0  0  0  0  0  0  0
   -0.7500   -1.2990    0.0000 C   0  0  0  0  0  0  0  0  0  0  0  0
   -1.5000    0.0000    0.0000 C   0  0  0  0  0  0  0  0  0  0  0  0
   -3.0000    0.0000    0.0000 S   0  0  0  0  0  0  0  0  0  0  0  0
   -4.5000    0.0000    0.0000 N   0  0  0  0  0  0  0  0  0  0  0  0
   -3.0000    1.5000    0.0000 O   0  0  0  0  0  0  0  0  0  0  0  0
   -3.0000   -1.5000    0.0000 O   0  0  0  0  0  0  0  0  0  0  0  0
   -0.7500    1.2990    0.0000 C   0  0  0  0  0  0  0  0  0  0  0  0
    0.7500    1.2990    0.0000 C   0  0  0  0  0  0  0  0  0  0  0  0
  1  2  1  0
  2  3  1  0
  2  4  1  0
  4  5  1  0
  5  6  2  0
  6  7  1  0
  7  8  1  0
  8  9  1  0
  8 10  2  0
  8 11  2  0
  7 12  2  0
 12 13  1  0
 13  4  2  0
M  END
>  <compound_id>  (181) 
DPC0181

>  <smiles>  (181) 
CN(C)c1ccc(S(N)(=O)=O)cc1

>  <patent_id>  (181) 
DEMO-104-A1

>  <assignee>  (181) 
Mosaic Medicines

>  <publication_date>  (181) 
2024-11-21

>  <year>  (181) 
2024

>  <series>  (181) 
phenyl

>  <assay_id>  (181) 
ASSAY-04-02

>  <standard_relation>  (181) 
=

>  <pIC50>  (181) 
6.34

>  <project_note>  (181) 
primary measurement

>  <source_row>  (181) 
181

>  <status>  (181) 
accepted

>  <duplicate_group_size>  (181) 
1

>  <source_rows>  (181) 
181

>  <patent_ids>  (181) 
DEMO-104-A1

>  <assignees>  (181) 
Mosaic Medicines

>  <molecular_weight>  (181) 
200.263

>  <clogp>  (181) 
0.4

>  <tpsa>  (181) 
63.4

>  <hbd>  (181) 
1

>  <hba>  (181) 
3

>  <rotatable_bonds>  (181) 
2

>  <heavy_atoms>  (181) 
13

>  <rings>  (181) 
1

>  <pIC50_median>  (181) 
6.34

>  <n_measurements>  (181) 
1.0

>  <murcko_scaffold>  (181) 
c1ccccc1

>  <scaffold_id>  (181) 
S001

>  <cluster_id>  (181) 
C014

$$$$
DPC0182
     RDKit          2D

 14 14  0  0  0  0  0  0  0  0999 V2000
    3.7500   -1.2990    0.0000 C   0  0  0  0  0  0  0  0  0  0  0  0
    3.0000    0.0000    0.0000 N   0  0  0  0  0  0  0  0  0  0  0  0
    3.7500    1.2990    0.0000 C   0  0  0  0  0  0  0  0  0  0  0  0
    1.5000    0.0000    0.0000 C   0  0  0  0  0  0  0  0  0  0  0  0
    0.7500   -1.2990    0.0000 C   0  0  0  0  0  0  0  0  0  0  0  0
   -0.7500   -1.2990    0.0000 C   0  0  0  0  0  0  0  0  0  0  0  0
   -1.5000    0.0000    0.0000 C   0  0  0  0  0  0  0  0  0  0  0  0
   -3.0000    0.0000    0.0000 O   0  0  0  0  0  0  0  0  0  0  0  0
   -3.7500    1.2990    0.0000 C   0  0  0  0  0  0  0  0  0  0  0  0
   -4.5000    2.5981    0.0000 F   0  0  0  0  0  0  0  0  0  0  0  0
   -5.0490    0.5490    0.0000 F   0  0  0  0  0  0  0  0  0  0  0  0
   -2.4510    2.0490    0.0000 F   0  0  0  0  0  0  0  0  0  0  0  0
   -0.7500    1.2990    0.0000 C   0  0  0  0  0  0  0  0  0  0  0  0
    0.7500    1.2990    0.0000 C   0  0  0  0  0  0  0  0  0  0  0  0
  1  2  1  0
  2  3  1  0
  2  4  1  0
  4  5  1  0
  5  6  2  0
  6  7  1  0
  7  8  1  0
  8  9  1  0
  9 10  1  0
  9 11  1  0
  9 12  1  0
  7 13  2  0
 13 14  1  0
 14  4  2  0
M  END
>  <compound_id>  (182) 
DPC0182

>  <smiles>  (182) 
CN(C)c1ccc(OC(F)(F)F)cc1

>  <patent_id>  (182) 
DEMO-104-A1

>  <assignee>  (182) 
Mosaic Medicines

>  <publication_date>  (182) 
2024-11-21

>  <year>  (182) 
2024

>  <series>  (182) 
phenyl

>  <assay_id>  (182) 
ASSAY-04-03

>  <standard_relation>  (182) 
=

>  <pIC50>  (182) 
6.45

>  <project_note>  (182) 
primary measurement

>  <source_row>  (182) 
182

>  <status>  (182) 
accepted

>  <duplicate_group_size>  (182) 
1

>  <source_rows>  (182) 
182

>  <patent_ids>  (182) 
DEMO-104-A1

>  <assignees>  (182) 
Mosaic Medicines

>  <molecular_weight>  (182) 
205.179

>  <clogp>  (182) 
2.651

>  <tpsa>  (182) 
12.47

>  <hbd>  (182) 
0

>  <hba>  (182) 
2

>  <rotatable_bonds>  (182) 
2

>  <heavy_atoms>  (182) 
14

>  <rings>  (182) 
1

>  <pIC50_median>  (182) 
6.45

>  <n_measurements>  (182) 
1.0

>  <murcko_scaffold>  (182) 
c1ccccc1

>  <scaffold_id>  (182) 
S001

>  <cluster_id>  (182) 
C013

$$$$
DPC0183
     RDKit          2D

 15 16  0  0  0  0  0  0  0  0999 V2000
    3.7500   -1.2990    0.0000 C   0  0  0  0  0  0  0  0  0  0  0  0
    3.0000    0.0000    0.0000 N   0  0  0  0  0  0  0  0  0  0  0  0
    3.7500    1.2990    0.0000 C   0  0  0  0  0  0  0  0  0  0  0  0
    1.5000    0.0000    0.0000 C   0  0  0  0  0  0  0  0  0  0  0  0
    0.7500   -1.2990    0.0000 C   0  0  0  0  0  0  0  0  0  0  0  0
   -0.7500   -1.2990    0.0000 C   0  0  0  0  0  0  0  0  0  0  0  0
   -1.5000    0.0000    0.0000 C   0  0  0  0  0  0  0  0  0  0  0  0
   -3.0000    0.0000    0.0000 N   0  0  0  0  0  0  0  0  0  0  0  0
   -3.7500    1.2990    0.0000 C   0  0  0  0  0  0  0  0  0  0  0  0
   -5.2500    1.2990    0.0000 C   0  0  0  0  0  0  0  0  0  0  0  0
   -6.0000    0.0000    0.0000 O   0  0  0  0  0  0  0  0  0  0  0  0
   -5.2500   -1.2990    0.0000 C   0  0  0  0  0  0  0  0  0  0  0  0
   -3.7500   -1.2990    0.0000 C   0  0  0  0  0  0  0  0  0  0  0  0
   -0.7500    1.2990    0.0000 C   0  0  0  0  0  0  0  0  0  0  0  0
    0.7500    1.2990    0.0000 C   0  0  0  0  0  0  0  0  0  0  0  0
  1  2  1  0
  2  3  1  0
  2  4  1  0
  4  5  1  0
  5  6  2  0
  6  7  1  0
  7  8  1  0
  8  9  1  0
  9 10  1  0
 10 11  1  0
 11 12  1  0
 12 13  1  0
  7 14  2  0
 14 15  1  0
 15  4  2  0
 13  8  1  0
M  END
>  <compound_id>  (183) 
DPC0183

>  <smiles>  (183) 
CN(C)c1ccc(N2CCOCC2)cc1

>  <patent_id>  (183) 
DEMO-104-A1

>  <assignee>  (183) 
Mosaic Medicines

>  <publication_date>  (183) 
2024-11-21

>  <year>  (183) 
2024

>  <series>  (183) 
phenyl

>  <assay_id>  (183) 
ASSAY-04-04

>  <standard_relation>  (183) 
=

>  <pIC50>  (183) 
6.68

>  <project_note>  (183) 
primary measurement

>  <source_row>  (183) 
183

>  <status>  (183) 
accepted

>  <duplicate_group_size>  (183) 
1

>  <source_rows>  (183) 
183

>  <patent_ids>  (183) 
DEMO-104-A1

>  <assignees>  (183) 
Mosaic Medicines

>  <molecular_weight>  (183) 
206.289

>  <clogp>  (183) 
1.589

>  <tpsa>  (183) 
15.71

>  <hbd>  (183) 
0

>  <hba>  (183) 
3

>  <rotatable_bonds>  (183) 
2

>  <heavy_atoms>  (183) 
15

>  <rings>  (183) 
2

>  <pIC50_median>  (183) 
6.68

>  <n_measurements>  (183) 
1.0

>  <murcko_scaffold>  (183) 
c1ccc(N2CCOCC2)cc1

>  <scaffold_id>  (183) 
S002

>  <cluster_id>  (183) 
C011

$$$$
DPC0184
     RDKit          2D

 12 13  0  0  0  0  0  0  0  0999 V2000
    3.7500   -1.2990    0.0000 C   0  0  0  0  0  0  0  0  0  0  0  0
    3.0000    0.0000    0.0000 N   0  0  0  0  0  0  0  0  0  0  0  0
    3.7500    1.2990    0.0000 C   0  0  0  0  0  0  0  0  0  0  0  0
    1.5000    0.0000    0.0000 C   0  0  0  0  0  0  0  0  0  0  0  0
    0.7500   -1.2990    0.0000 C   0  0  0  0  0  0  0  0  0  0  0  0
   -0.7500   -1.2990    0.0000 C   0  0  0  0  0  0  0  0  0  0  0  0
   -1.5000    0.0000    0.0000 C   0  0  0  0  0  0  0  0  0  0  0  0
   -3.0000    0.0000    0.0000 C   0  0  0  0  0  0  0  0  0  0  0  0
   -4.2990   -0.7500    0.0000 C   0  0  0  0  0  0  0  0  0  0  0  0
   -4.2990    0.7500    0.0000 C   0  0  0  0  0  0  0  0  0  0  0  0
   -0.7500    1.2990    0.0000 C   0  0  0  0  0  0  0  0  0  0  0  0
    0.7500    1.2990    0.0000 C   0  0  0  0  0  0  0  0  0  0  0  0
  1  2  1  0
  2  3  1  0
  2  4  1  0
  4  5  1  0
  5  6  2  0
  6  7  1  0
  7  8  1  0
  8  9  1  0
  9 10  1  0
  7 11  2  0
 11 12  1  0
 12  4  2  0
 10  8  1  0
M  END
>  <compound_id>  (184) 
DPC0184

>  <smiles>  (184) 
CN(C)c1ccc(C2CC2)cc1

>  <patent_id>  (184) 
DEMO-104-A1

>  <assignee>  (184) 
Mosaic Medicines

>  <publication_date>  (184) 
2024-11-21

>  <year>  (184) 
2024

>  <series>  (184) 
phenyl

>  <assay_id>  (184) 
ASSAY-04-05

>  <standard_relation>  (184) 
<

>  <pIC50>  (184) 
6.33

>  <project_note>  (184) 
primary measurement

>  <source_row>  (184) 
184

>  <status>  (184) 
accepted

>  <duplicate_group_size>  (184) 
1

>  <source_rows>  (184) 
184

>  <patent_ids>  (184) 
DEMO-104-A1

>  <assignees>  (184) 
Mosaic Medicines

>  <molecular_weight>  (184) 
161.248

>  <clogp>  (184) 
2.63

>  <tpsa>  (184) 
3.24

>  <hbd>  (184) 
0

>  <hba>  (184) 
1

>  <rotatable_bonds>  (184) 
2

>  <heavy_atoms>  (184) 
12

>  <rings>  (184) 
2

>  <murcko_scaffold>  (184) 
c1ccc(C2CC2)cc1

>  <scaffold_id>  (184) 
S003

>  <cluster_id>  (184) 
C007

$$$$
DPC0185
     RDKit          2D

 15 16  0  0  0  0  0  0  0  0999 V2000
    3.7500   -1.2990    0.0000 C   0  0  0  0  0  0  0  0  0  0  0  0
    3.0000    0.0000    0.0000 N   0  0  0  0  0  0  0  0  0  0  0  0
    3.7500    1.2990    0.0000 C   0  0  0  0  0  0  0  0  0  0  0  0
    1.5000    0.0000    0.0000 C   0  0  0  0  0  0  0  0  0  0  0  0
    0.7500   -1.2990    0.0000 C   0  0  0  0  0  0  0  0  0  0  0  0
   -0.7500   -1.2990    0.0000 C   0  0  0  0  0  0  0  0  0  0  0  0
   -1.5000    0.0000    0.0000 C   0  0  0  0  0  0  0  0  0  0  0  0
   -3.0000    0.0000    0.0000 C   0  0  0  0  0  0  0  0  0  0  0  0
   -3.7500    1.2990    0.0000 C   0  0  0  0  0  0  0  0  0  0  0  0
   -5.2500    1.2990    0.0000 C   0  0  0  0  0  0  0  0  0  0  0  0
   -6.0000    0.0000    0.0000 C   0  0  0  0  0  0  0  0  0  0  0  0
   -5.2500   -1.2990    0.0000 C   0  0  0  0  0  0  0  0  0  0  0  0
   -3.7500   -1.2990    0.0000 C   0  0  0  0  0  0  0  0  0  0  0  0
   -0.7500    1.2990    0.0000 C   0  0  0  0  0  0  0  0  0  0  0  0
    0.7500    1.2990    0.0000 C   0  0  0  0  0  0  0  0  0  0  0  0
  1  2  1  0
  2  3  1  0
  2  4  1  0
  4  5  1  0
  5  6  2  0
  6  7  1  0
  7  8  1  0
  8  9  1  0
  9 10  1  0
 10 11  1  0
 11 12  1  0
 12 13  1  0
  7 14  2  0
 14 15  1  0
 15  4  2  0
 13  8  1  0
M  END
>  <compound_id>  (185) 
DPC0185

>  <smiles>  (185) 
CN(C)c1ccc(C2CCCCC2)cc1

>  <patent_id>  (185) 
DEMO-104-A1

>  <assignee>  (185) 
Mosaic Medicines

>  <publication_date>  (185) 
2024-11-21

>  <year>  (185) 
2024

>  <series>  (185) 
phenyl

>  <assay_id>  (185) 
ASSAY-04-06

>  <standard_relation>  (185) 
>

>  <pIC50>  (185) 
6.34

>  <project_note>  (185) 
primary measurement

>  <source_row>  (185) 
185

>  <status>  (185) 
accepted

>  <duplicate_group_size>  (185) 
1

>  <source_rows>  (185) 
185

>  <patent_ids>  (185) 
DEMO-104-A1

>  <assignees>  (185) 
Mosaic Medicines

>  <molecular_weight>  (185) 
203.329

>  <clogp>  (185) 
3.8

>  <tpsa>  (185) 
3.24

>  <hbd>  (185) 
0

>  <hba>  (185) 
1

>  <rotatable_bonds>  (185) 
2

>  <heavy_atoms>  (185) 
15

>  <rings>  (185) 
2

>  <murcko_scaffold>  (185) 
c1ccc(C2CCCCC2)cc1

>  <scaffold_id>  (185) 
S004

>  <cluster_id>  (185) 
C012

$$$$
DPC0186
     RDKit          2D

 10 10  0  0  0  0  0  0  0  0999 V2000
    3.7500   -1.2990    0.0000 C   0  0  0  0  0  0  0  0  0  0  0  0
    3.0000    0.0000    0.0000 N   0  0  0  0  0  0  0  0  0  0  0  0
    3.7500    1.2990    0.0000 C   0  0  0  0  0  0  0  0  0  0  0  0
    1.5000    0.0000    0.0000 C   0  0  0  0  0  0  0  0  0  0  0  0
    0.7500   -1.2990    0.0000 C   0  0  0  0  0  0  0  0  0  0  0  0
   -0.7500   -1.2990    0.0000 C   0  0  0  0  0  0  0  0  0  0  0  0
   -1.5000    0.0000    0.0000 C   0  0  0  0  0  0  0  0  0  0  0  0
   -3.0000    0.0000    0.0000 O   0  0  0  0  0  0  0  0  0  0  0  0
   -0.7500    1.2990    0.0000 C   0  0  0  0  0  0  0  0  0  0  0  0
    0.7500    1.2990    0.0000 C   0  0  0  0  0  0  0  0  0  0  0  0
  1  2  1  0
  2  3  1  0
  2  4  1  0
  4  5  1  0
  5  6  2  0
  6  7  1  0
  7  8  1  0
  7  9  2  0
  9 10  1  0
 10  4  2  0
M  END
>  <compound_id>  (186) 
DPC0186

>  <smiles>  (186) 
CN(C)c1ccc(O)cc1

>  <patent_id>  (186) 
DEMO-104-A1

>  <assignee>  (186) 
Mosaic Medicines

>  <publication_date>  (186) 
2024-11-21

>  <year>  (186) 
2024

>  <series>  (186) 
phenyl

>  <assay_id>  (186) 
ASSAY-04-07

>  <standard_relation>  (186) 
=

>  <pIC50>  (186) 
6.03

>  <project_note>  (186) 
primary measurement

>  <source_row>  (186) 
186

>  <status>  (186) 
accepted

>  <duplicate_group_size>  (186) 
1

>  <source_rows>  (186) 
186

>  <patent_ids>  (186) 
DEMO-104-A1

>  <assignees>  (186) 
Mosaic Medicines

>  <molecular_weight>  (186) 
137.182

>  <clogp>  (186) 
1.458

>  <tpsa>  (186) 
23.47

>  <hbd>  (186) 
1

>  <hba>  (186) 
2

>  <rotatable_bonds>  (186) 
1

>  <heavy_atoms>  (186) 
10

>  <rings>  (186) 
1

>  <pIC50_median>  (186) 
6.03

>  <n_measurements>  (186) 
1.0

>  <murcko_scaffold>  (186) 
c1ccccc1

>  <scaffold_id>  (186) 
S001

>  <cluster_id>  (186) 
C007

$$$$
DPC0187
     RDKit          2D

 12 12  0  0  0  0  0  0  0  0999 V2000
    3.7500   -1.2990    0.0000 C   0  0  0  0  0  0  0  0  0  0  0  0
    3.0000    0.0000    0.0000 N   0  0  0  0  0  0  0  0  0  0  0  0
    3.7500    1.2990    0.0000 C   0  0  0  0  0  0  0  0  0  0  0  0
    1.5000    0.0000    0.0000 C   0  0  0  0  0  0  0  0  0  0  0  0
    0.7500   -1.2990    0.0000 C   0  0  0  0  0  0  0  0  0  0  0  0
   -0.7500   -1.2990    0.0000 C   0  0  0  0  0  0  0  0  0  0  0  0
   -1.5000    0.0000    0.0000 C   0  0  0  0  0  0  0  0  0  0  0  0
   -3.0000    0.0000    0.0000 C   0  0  0  0  0  0  0  0  0  0  0  0
   -3.7500   -1.2990    0.0000 O   0  0  0  0  0  0  0  0  0  0  0  0
   -3.7500    1.2990    0.0000 O   0  0  0  0  0  0  0  0  0  0  0  0
   -0.7500    1.2990    0.0000 C   0  0  0  0  0  0  0  0  0  0  0  0
    0.7500    1.2990    0.0000 C   0  0  0  0  0  0  0  0  0  0  0  0
  1  2  1  0
  2  3  1  0
  2  4  1  0
  4  5  1  0
  5  6  2  0
  6  7  1  0
  7  8  1  0
  8  9  2  0
  8 10  1  0
  7 11  2  0
 11 12  1  0
 12  4  2  0
M  END
>  <compound_id>  (187) 
DPC0187

>  <smiles>  (187) 
CN(C)c1ccc(C(=O)O)cc1

>  <patent_id>  (187) 
DEMO-104-A1

>  <assignee>  (187) 
Mosaic Medicines

>  <publication_date>  (187) 
2024-11-21

>  <year>  (187) 
2024

>  <series>  (187) 
phenyl

>  <assay_id>  (187) 
ASSAY-04-08

>  <standard_relation>  (187) 
=

>  <pIC50>  (187) 
6.04

>  <project_note>  (187) 
primary measurement

>  <source_row>  (187) 
187

>  <status>  (187) 
accepted

>  <duplicate_group_size>  (187) 
1

>  <source_rows>  (187) 
187

>  <patent_ids>  (187) 
DEMO-104-A1

>  <assignees>  (187) 
Mosaic Medicines

>  <molecular_weight>  (187) 
165.192

>  <clogp>  (187) 
1.451

>  <tpsa>  (187) 
40.54

>  <hbd>  (187) 
1

>  <hba>  (187) 
2

>  <rotatable_bonds>  (187) 
2

>  <heavy_atoms>  (187) 
12

>  <rings>  (187) 
1

>  <pIC50_median>  (187) 
6.04

>  <n_measurements>  (187) 
1.0

>  <murcko_scaffold>  (187) 
c1ccccc1

>  <scaffold_id>  (187) 
S001

>  <cluster_id>  (187) 
C007

$$$$
DPC0188
     RDKit          2D

 10 10  0  0  0  0  0  0  0  0999 V2000
    4.5000    0.0000    0.0000 N   0  0  0  0  0  0  0  0  0  0  0  0
    3.0000    0.0000    0.0000 C   0  0  0  0  0  0  0  0  0  0  0  0
    1.5000    0.0000    0.0000 C   0  0  0  0  0  0  0  0  0  0  0  0
    0.7500   -1.2990    0.0000 C   0  0  0  0  0  0  0  0  0  0  0  0
   -0.7500   -1.2990    0.0000 C   0  0  0  0  0  0  0  0  0  0  0  0
   -1.5000    0.0000    0.0000 C   0  0  0  0  0  0  0  0  0  0  0  0
   -3.0000    0.0000    0.0000 C   0  0  0  0  0  0  0  0  0  0  0  0
   -4.5000    0.0000    0.0000 N   0  0  0  0  0  0  0  0  0  0  0  0
   -0.7500    1.2990    0.0000 C   0  0  0  0  0  0  0  0  0  0  0  0
    0.7500    1.2990    0.0000 C   0  0  0  0  0  0  0  0  0  0  0  0
  1  2  3  0
  2  3  1  0
  3  4  1  0
  4  5  2  0
  5  6  1  0
  6  7  1  0
  7  8  3  0
  6  9  2  0
  9 10  1  0
 10  3  2  0
M  END
>  <compound_id>  (188) 
DPC0188

>  <smiles>  (188) 
N#Cc1ccc(C#N)cc1

>  <patent_id>  (188) 
DEMO-104-A1

>  <assignee>  (188) 
Mosaic Medicines

>  <publication_date>  (188) 
2024-11-21

>  <year>  (188) 
2024

>  <series>  (188) 
phenyl

>  <assay_id>  (188) 
ASSAY-04-09

>  <standard_relation>  (188) 
=

>  <pIC50>  (188) 
6.41

>  <project_note>  (188) 
primary measurement

>  <source_row>  (188) 
188

>  <status>  (188) 
accepted

>  <duplicate_group_size>  (188) 
1

>  <source_rows>  (188) 
188

>  <patent_ids>  (188) 
DEMO-104-A1

>  <assignees>  (188) 
Mosaic Medicines

>  <molecular_weight>  (188) 
128.134

>  <clogp>  (188) 
1.43

>  <tpsa>  (188) 
47.58

>  <hbd>  (188) 
0

>  <hba>  (188) 
2

>  <rotatable_bonds>  (188) 
0

>  <heavy_atoms>  (188) 
10

>  <rings>  (188) 
1

>  <pIC50_median>  (188) 
6.41

>  <n_measurements>  (188) 
1.0

>  <murcko_scaffold>  (188) 
c1ccccc1

>  <scaffold_id>  (188) 
S001

>  <cluster_id>  (188) 
C009

$$$$
DPC0189
     RDKit          2D

 12 12  0  0  0  0  0  0  0  0999 V2000
    4.5000    0.0000    0.0000 N   0  0  0  0  0  0  0  0  0  0  0  0
    3.0000    0.0000    0.0000 C   0  0  0  0  0  0  0  0  0  0  0  0
    1.5000    0.0000    0.0000 C   0  0  0  0  0  0  0  0  0  0  0  0
    0.7500   -1.2990    0.0000 C   0  0  0  0  0  0  0  0  0  0  0  0
   -0.7500   -1.2990    0.0000 C   0  0  0  0  0  0  0  0  0  0  0  0
   -1.5000    0.0000    0.0000 C   0  0  0  0  0  0  0  0  0  0  0  0
   -3.0000    0.0000    0.0000 C   0  0  0  0  0  0  0  0  0  0  0  0
   -4.5000    0.0000    0.0000 F   0  0  0  0  0  0  0  0  0  0  0  0
   -3.0000    1.5000    0.0000 F   0  0  0  0  0  0  0  0  0  0  0  0
   -3.0000   -1.5000    0.0000 F   0  0  0  0  0  0  0  0  0  0  0  0
   -0.7500    1.2990    0.0000 C   0  0  0  0  0  0  0  0  0  0  0  0
    0.7500    1.2990    0.0000 C   0  0  0  0  0  0  0  0  0  0  0  0
  1  2  3  0
  2  3  1  0
  3  4  1  0
  4  5  2  0
  5  6  1  0
  6  7  1  0
  7  8  1  0
  7  9  1  0
  7 10  1  0
  6 11  2  0
 11 12  1  0
 12  3  2  0
M  END
>  <compound_id>  (189) 
DPC0189

>  <smiles>  (189) 
N#Cc1ccc(C(F)(F)F)cc1

>  <patent_id>  (189) 
DEMO-104-A1

>  <assignee>  (189) 
Mosaic Medicines

>  <publication_date>  (189) 
2024-11-21

>  <year>  (189) 
2024

>  <series>  (189) 
phenyl

>  <assay_id>  (189) 
ASSAY-04-10

>  <standard_relation>  (189) 
=

>  <pIC50>  (189) 
6.47

>  <project_note>  (189) 
primary measurement

>  <source_row>  (189) 
189

>  <status>  (189) 
accepted

>  <duplicate_group_size>  (189) 
1

>  <source_rows>  (189) 
189

>  <patent_ids>  (189) 
DEMO-104-A1

>  <assignees>  (189) 
Mosaic Medicines

>  <molecular_weight>  (189) 
171.121

>  <clogp>  (189) 
2.577

>  <tpsa>  (189) 
23.79

>  <hbd>  (189) 
0

>  <hba>  (189) 
1

>  <rotatable_bonds>  (189) 
0

>  <heavy_atoms>  (189) 
12

>  <rings>  (189) 
1

>  <pIC50_median>  (189) 
6.47

>  <n_measurements>  (189) 
1.0

>  <murcko_scaffold>  (189) 
c1ccccc1

>  <scaffold_id>  (189) 
S001

>  <cluster_id>  (189) 
C006

$$$$
DPC0190
     RDKit          2D

 11 11  0  0  0  0  0  0  0  0999 V2000
    4.5000    0.0000    0.0000 N   0  0  0  0  0  0  0  0  0  0  0  0
    3.0000    0.0000    0.0000 C   0  0  0  0  0  0  0  0  0  0  0  0
    1.5000    0.0000    0.0000 C   0  0  0  0  0  0  0  0  0  0  0  0
    0.7500   -1.2990    0.0000 C   0  0  0  0  0  0  0  0  0  0  0  0
   -0.7500   -1.2990    0.0000 C   0  0  0  0  0  0  0  0  0  0  0  0
   -1.5000    0.0000    0.0000 C   0  0  0  0  0  0  0  0  0  0  0  0
   -3.0000    0.0000    0.0000 C   0  0  0  0  0  0  0  0  0  0  0  0
   -3.7500    1.2990    0.0000 N   0  0  0  0  0  0  0  0  0  0  0  0
   -3.7500   -1.2990    0.0000 O   0  0  0  0  0  0  0  0  0  0  0  0
   -0.7500    1.2990    0.0000 C   0  0  0  0  0  0  0  0  0  0  0  0
    0.7500    1.2990    0.0000 C   0  0  0  0  0  0  0  0  0  0  0  0
  1  2  3  0
  2  3  1  0
  3  4  1  0
  4  5  2  0
  5  6  1  0
  6  7  1  0
  7  8  1  0
  7  9  2  0
  6 10  2  0
 10 11  1  0
 11  3  2  0
M  END
>  <compound_id>  (190) 
DPC0190

>  <smiles>  (190) 
N#Cc1ccc(C(N)=O)cc1

>  <patent_id>  (190) 
DEMO-104-A1

>  <assignee>  (190) 
Mosaic Medicines

>  <publication_date>  (190) 
2024-11-21

>  <year>  (190) 
2024

>  <series>  (190) 
phenyl

>  <assay_id>  (190) 
ASSAY-04-11

>  <standard_relation>  (190) 
=

>  <pIC50>  (190) 
6.57

>  <project_note>  (190) 
primary measurement

>  <source_row>  (190) 
190

>  <status>  (190) 
accepted

>  <duplicate_group_size>  (190) 
1

>  <source_rows>  (190) 
190

>  <patent_ids>  (190) 
DEMO-104-A1

>  <assignees>  (190) 
Mosaic Medicines

>  <molecular_weight>  (190) 
146.149

>  <clogp>  (190) 
0.657

>  <tpsa>  (190) 
66.88

>  <hbd>  (190) 
1

>  <hba>  (190) 
2

>  <rotatable_bonds>  (190) 
1

>  <heavy_atoms>  (190) 
11

>  <rings>  (190) 
1

>  <pIC50_median>  (190) 
6.57

>  <n_measurements>  (190) 
1.0

>  <murcko_scaffold>  (190) 
c1ccccc1

>  <scaffold_id>  (190) 
S001

>  <cluster_id>  (190) 
C003

$$$$
DPC0191
     RDKit          2D

 12 12  0  0  0  0  0  0  0  0999 V2000
    5.2500   -1.2990    0.0000 C   0  0  0  0  0  0  0  0  0  0  0  0
    3.7500   -1.2990    0.0000 N   0  0  0  0  0  0  0  0  0  0  0  0
    3.0000    0.0000    0.0000 C   0  0  0  0  0  0  0  0  0  0  0  0
    3.7500    1.2990    0.0000 O   0  0  0  0  0  0  0  0  0  0  0  0
    1.5000    0.0000    0.0000 C   0  0  0  0  0  0  0  0  0  0  0  0
    0.7500   -1.2990    0.0000 C   0  0  0  0  0  0  0  0  0  0  0  0
   -0.7500   -1.2990    0.0000 C   0  0  0  0  0  0  0  0  0  0  0  0
   -1.5000    0.0000    0.0000 C   0  0  0  0  0  0  0  0  0  0  0  0
   -3.0000    0.0000    0.0000 C   0  0  0  0  0  0  0  0  0  0  0  0
   -4.5000    0.0000    0.0000 N   0  0  0  0  0  0  0  0  0  0  0  0
   -0.7500    1.2990    0.0000 C   0  0  0  0  0  0  0  0  0  0  0  0
    0.7500    1.2990    0.0000 C   0  0  0  0  0  0  0  0  0  0  0  0
  1  2  1  0
  2  3  1  0
  3  4  2  0
  3  5  1  0
  5  6  1  0
  6  7  2  0
  7  8  1  0
  8  9  1  0
  9 10  3  0
  8 11  2  0
 11 12  1  0
 12  5  2  0
M  END
>  <compound_id>  (191) 
DPC0191

>  <smiles>  (191) 
CNC(=O)c1ccc(C#N)cc1

>  <patent_id>  (191) 
DEMO-104-A1

>  <assignee>  (191) 
Mosaic Medicines

>  <publication_date>  (191) 
2024-11-21

>  <year>  (191) 
2024

>  <series>  (191) 
phenyl

>  <assay_id>  (191) 
ASSAY-04-12

>  <standard_relation>  (191) 
=

>  <pIC50>  (191) 
6.74

>  <project_note>  (191) 
primary measurement

>  <source_row>  (191) 
191

>  <status>  (191) 
accepted

>  <duplicate_group_size>  (191) 
1

>  <source_rows>  (191) 
191

>  <patent_ids>  (191) 
DEMO-104-A1

>  <assignees>  (191) 
Mosaic Medicines

>  <molecular_weight>  (191) 
160.176

>  <clogp>  (191) 
0.918

>  <tpsa>  (191) 
52.89

>  <hbd>  (191) 
1

>  <hba>  (191) 
2

>  <rotatable_bonds>  (191) 
1

>  <heavy_atoms>  (191) 
12

>  <rings>  (191) 
1

>  <pIC50_median>  (191) 
6.74

>  <n_measurements>  (191) 
1.0

>  <murcko_scaffold>  (191) 
c1ccccc1

>  <scaffold_id>  (191) 
S001

>  <cluster_id>  (191) 
C010

$$$$
DPC0192
     RDKit          2D

 12 12  0  0  0  0  0  0  0  0999 V2000
    4.5000    0.0000    0.0000 N   0  0  0  0  0  0  0  0  0  0  0  0
    3.0000    0.0000    0.0000 C   0  0  0  0  0  0  0  0  0  0  0  0
    1.5000    0.0000    0.0000 C   0  0  0  0  0  0  0  0  0  0  0  0
    0.7500   -1.2990    0.0000 C   0  0  0  0  0  0  0  0  0  0  0  0
   -0.7500   -1.2990    0.0000 C   0  0  0  0  0  0  0  0  0  0  0  0
   -1.5000    0.0000    0.0000 C   0  0  0  0  0  0  0  0  0  0  0  0
   -3.0000    0.0000    0.0000 S   0  0  0  0  0  0  0  0  0  0  0  0
   -4.5000    0.0000    0.0000 N   0  0  0  0  0  0  0  0  0  0  0  0
   -3.0000    1.5000    0.0000 O   0  0  0  0  0  0  0  0  0  0  0  0
   -3.0000   -1.5000    0.0000 O   0  0  0  0  0  0  0  0  0  0  0  0
   -0.7500    1.2990    0.0000 C   0  0  0  0  0  0  0  0  0  0  0  0
    0.7500    1.2990    0.0000 C   0  0  0  0  0  0  0  0  0  0  0  0
  1  2  3  0
  2  3  1  0
  3  4  1  0
  4  5  2  0
  5  6  1  0
  6  7  1  0
  7  8  1  0
  7  9  2  0
  7 10  2  0
  6 11  2  0
 11 12  1  0
 12  3  2  0
M  END
>  <compound_id>  (192) 
DPC0192

>  <smiles>  (192) 
N#Cc1ccc(S(N)(=O)=O)cc1

>  <patent_id>  (192) 
DEMO-104-A1

>  <assignee>  (192) 
Mosaic Medicines

>  <publication_date>  (192) 
2024-11-21

>  <year>  (192) 
2024

>  <series>  (192) 
phenyl

>  <assay_id>  (192) 
ASSAY-04-01

>  <standard_relation>  (192) 
=

>  <pIC50>  (192) 
6.65

>  <project_note>  (192) 
primary measurement

>  <source_row>  (192) 
192

>  <status>  (192) 
accepted

>  <duplicate_group_size>  (192) 
1

>  <source_rows>  (192) 
192

>  <patent_ids>  (192) 
DEMO-104-A1

>  <assignees>  (192) 
Mosaic Medicines

>  <molecular_weight>  (192) 
182.204

>  <clogp>  (192) 
0.206

>  <tpsa>  (192) 
83.95

>  <hbd>  (192) 
1

>  <hba>  (192) 
3

>  <rotatable_bonds>  (192) 
1

>  <heavy_atoms>  (192) 
12

>  <rings>  (192) 
1

>  <pIC50_median>  (192) 
6.65

>  <n_measurements>  (192) 
1.0

>  <murcko_scaffold>  (192) 
c1ccccc1

>  <scaffold_id>  (192) 
S001

>  <cluster_id>  (192) 
C040

$$$$
DPC0193
     RDKit          2D

 13 13  0  0  0  0  0  0  0  0999 V2000
    4.5000    0.0000    0.0000 N   0  0  0  0  0  0  0  0  0  0  0  0
    3.0000    0.0000    0.0000 C   0  0  0  0  0  0  0  0  0  0  0  0
    1.5000    0.0000    0.0000 C   0  0  0  0  0  0  0  0  0  0  0  0
    0.7500   -1.2990    0.0000 C   0  0  0  0  0  0  0  0  0  0  0  0
   -0.7500   -1.2990    0.0000 C   0  0  0  0  0  0  0  0  0  0  0  0
   -1.5000    0.0000    0.0000 C   0  0  0  0  0  0  0  0  0  0  0  0
   -3.0000    0.0000    0.0000 O   0  0  0  0  0  0  0  0  0  0  0  0
   -3.7500    1.2990    0.0000 C   0  0  0  0  0  0  0  0  0  0  0  0
   -4.5000    2.5981    0.0000 F   0  0  0  0  0  0  0  0  0  0  0  0
   -5.0490    0.5490    0.0000 F   0  0  0  0  0  0  0  0  0  0  0  0
   -2.4510    2.0490    0.0000 F   0  0  0  0  0  0  0  0  0  0  0  0
   -0.7500    1.2990    0.0000 C   0  0  0  0  0  0  0  0  0  0  0  0
    0.7500    1.2990    0.0000 C   0  0  0  0  0  0  0  0  0  0  0  0
  1  2  3  0
  2  3  1  0
  3  4  1  0
  4  5  2  0
  5  6  1  0
  6  7  1  0
  7  8  1  0
  8  9  1  0
  8 10  1  0
  8 11  1  0
  6 12  2  0
 12 13  1  0
 13  3  2  0
M  END
>  <compound_id>  (193) 
DPC0193

>  <smiles>  (193) 
N#Cc1ccc(OC(F)(F)F)cc1

>  <patent_id>  (193) 
DEMO-104-A1

>  <assignee>  (193) 
Mosaic Medicines

>  <publication_date>  (193) 
2024-11-21

>  <year>  (193) 
2024

>  <series>  (193) 
phenyl

>  <assay_id>  (193) 
ASSAY-04-02

>  <standard_relation>  (193) 
=

>  <pIC50>  (193) 
6.61

>  <project_note>  (193) 
primary measurement

>  <source_row>  (193) 
193

>  <status>  (193) 
accepted

>  <duplicate_group_size>  (193) 
1

>  <source_rows>  (193) 
193

>  <patent_ids>  (193) 
DEMO-104-A1

>  <assignees>  (193) 
Mosaic Medicines

>  <molecular_weight>  (193) 
187.12

>  <clogp>  (193) 
2.457

>  <tpsa>  (193) 
33.02

>  <hbd>  (193) 
0

>  <hba>  (193) 
2

>  <rotatable_bonds>  (193) 
1

>  <heavy_atoms>  (193) 
13

>  <rings>  (193) 
1

>  <pIC50_median>  (193) 
6.61

>  <n_measurements>  (193) 
1.0

>  <murcko_scaffold>  (193) 
c1ccccc1

>  <scaffold_id>  (193) 
S001

>  <cluster_id>  (193) 
C039

$$$$
DPC0194
     RDKit          2D

 14 15  0  0  0  0  0  0  0  0999 V2000
    4.5000    0.0000    0.0000 N   0  0  0  0  0  0  0  0  0  0  0  0
    3.0000    0.0000    0.0000 C   0  0  0  0  0  0  0  0  0  0  0  0
    1.5000    0.0000    0.0000 C   0  0  0  0  0  0  0  0  0  0  0  0
    0.7500   -1.2990    0.0000 C   0  0  0  0  0  0  0  0  0  0  0  0
   -0.7500   -1.2990    0.0000 C   0  0  0  0  0  0  0  0  0  0  0  0
   -1.5000    0.0000    0.0000 C   0  0  0  0  0  0  0  0  0  0  0  0
   -3.0000    0.0000    0.0000 N   0  0  0  0  0  0  0  0  0  0  0  0
   -3.7500    1.2990    0.0000 C   0  0  0  0  0  0  0  0  0  0  0  0
   -5.2500    1.2990    0.0000 C   0  0  0  0  0  0  0  0  0  0  0  0
   -6.0000    0.0000    0.0000 O   0  0  0  0  0  0  0  0  0  0  0  0
   -5.2500   -1.2990    0.0000 C   0  0  0  0  0  0  0  0  0  0  0  0
   -3.7500   -1.2990    0.0000 C   0  0  0  0  0  0  0  0  0  0  0  0
   -0.7500    1.2990    0.0000 C   0  0  0  0  0  0  0  0  0  0  0  0
    0.7500    1.2990    0.0000 C   0  0  0  0  0  0  0  0  0  0  0  0
  1  2  3  0
  2  3  1  0
  3  4  1  0
  4  5  2  0
  5  6  1  0
  6  7  1  0
  7  8  1  0
  8  9  1  0
  9 10  1  0
 10 11  1  0
 11 12  1  0
  6 13  2  0
 13 14  1  0
 14  3  2  0
 12  7  1  0
M  END
>  <compound_id>  (194) 
DPC0194

>  <smiles>  (194) 
N#Cc1ccc(N2CCOCC2)cc1

>  <patent_id>  (194) 
DEMO-104-A1

>  <assignee>  (194) 
Mosaic Medicines

>  <publication_date>  (194) 
2024-11-21

>  <year>  (194) 
2024

>  <series>  (194) 
phenyl

>  <assay_id>  (194) 
ASSAY-04-03

>  <standard_relation>  (194) 
=

>  <pIC50>  (194) 
6.7

>  <project_note>  (194) 
primary measurement

>  <source_row>  (194) 
194

>  <status>  (194) 
accepted

>  <duplicate_group_size>  (194) 
1

>  <source_rows>  (194) 
194

>  <patent_ids>  (194) 
DEMO-104-A1

>  <assignees>  (194) 
Mosaic Medicines

>  <molecular_weight>  (194) 
188.23

>  <clogp>  (194) 
1.395

>  <tpsa>  (194) 
36.26

>  <hbd>  (194) 
0

>  <hba>  (194) 
3

>  <rotatable_bonds>  (194) 
1

>  <heavy_atoms>  (194) 
14

>  <rings>  (194) 
2

>  <pIC50_median>  (194) 
6.7

>  <n_measurements>  (194) 
1.0

>  <murcko_scaffold>  (194) 
c1ccc(N2CCOCC2)cc1

>  <scaffold_id>  (194) 
S002

>  <cluster_id>  (194) 
C011

$$$$
DPC0195
     RDKit          2D

 11 12  0  0  0  0  0  0  0  0999 V2000
    4.5000    0.0000    0.0000 N   0  0  0  0  0  0  0  0  0  0  0  0
    3.0000    0.0000    0.0000 C   0  0  0  0  0  0  0  0  0  0  0  0
    1.5000    0.0000    0.0000 C   0  0  0  0  0  0  0  0  0  0  0  0
    0.7500   -1.2990    0.0000 C   0  0  0  0  0  0  0  0  0  0  0  0
   -0.7500   -1.2990    0.0000 C   0  0  0  0  0  0  0  0  0  0  0  0
   -1.5000    0.0000    0.0000 C   0  0  0  0  0  0  0  0  0  0  0  0
   -3.0000    0.0000    0.0000 C   0  0  0  0  0  0  0  0  0  0  0  0
   -4.2990   -0.7500    0.0000 C   0  0  0  0  0  0  0  0  0  0  0  0
   -4.2990    0.7500    0.0000 C   0  0  0  0  0  0  0  0  0  0  0  0
   -0.7500    1.2990    0.0000 C   0  0  0  0  0  0  0  0  0  0  0  0
    0.7500    1.2990    0.0000 C   0  0  0  0  0  0  0  0  0  0  0  0
  1  2  3  0
  2  3  1  0
  3  4  1  0
  4  5  2  0
  5  6  1  0
  6  7  1  0
  7  8  1  0
  8  9  1  0
  6 10  2  0
 10 11  1  0
 11  3  2  0
  9  7  1  0
M  END
>  <compound_id>  (195) 
DPC0195

>  <smiles>  (195) 
N#Cc1ccc(C2CC2)cc1

>  <patent_id>  (195) 
DEMO-104-A1

>  <assignee>  (195) 
Mosaic Medicines

>  <publication_date>  (195) 
2024-11-21

>  <year>  (195) 
2024

>  <series>  (195) 
phenyl

>  <assay_id>  (195) 
ASSAY-04-04

>  <standard_relation>  (195) 
=

>  <pIC50>  (195) 
6.31

>  <project_note>  (195) 
primary measurement

>  <source_row>  (195) 
195

>  <status>  (195) 
accepted

>  <duplicate_group_size>  (195) 
1

>  <source_rows>  (195) 
195

>  <patent_ids>  (195) 
DEMO-104-A1

>  <assignees>  (195) 
Mosaic Medicines

>  <molecular_weight>  (195) 
143.189

>  <clogp>  (195) 
2.436

>  <tpsa>  (195) 
23.79

>  <hbd>  (195) 
0

>  <hba>  (195) 
1

>  <rotatable_bonds>  (195) 
1

>  <heavy_atoms>  (195) 
11

>  <rings>  (195) 
2

>  <pIC50_median>  (195) 
6.31

>  <n_measurements>  (195) 
1.0

>  <murcko_scaffold>  (195) 
c1ccc(C2CC2)cc1

>  <scaffold_id>  (195) 
S003

>  <cluster_id>  (195) 
C009

$$$$
DPC0196
     RDKit          2D

 14 15  0  0  0  0  0  0  0  0999 V2000
    4.5000    0.0000    0.0000 N   0  0  0  0  0  0  0  0  0  0  0  0
    3.0000    0.0000    0.0000 C   0  0  0  0  0  0  0  0  0  0  0  0
    1.5000    0.0000    0.0000 C   0  0  0  0  0  0  0  0  0  0  0  0
    0.7500   -1.2990    0.0000 C   0  0  0  0  0  0  0  0  0  0  0  0
   -0.7500   -1.2990    0.0000 C   0  0  0  0  0  0  0  0  0  0  0  0
   -1.5000    0.0000    0.0000 C   0  0  0  0  0  0  0  0  0  0  0  0
   -3.0000    0.0000    0.0000 C   0  0  0  0  0  0  0  0  0  0  0  0
   -3.7500    1.2990    0.0000 C   0  0  0  0  0  0  0  0  0  0  0  0
   -5.2500    1.2990    0.0000 C   0  0  0  0  0  0  0  0  0  0  0  0
   -6.0000    0.0000    0.0000 C   0  0  0  0  0  0  0  0  0  0  0  0
   -5.2500   -1.2990    0.0000 C   0  0  0  0  0  0  0  0  0  0  0  0
   -3.7500   -1.2990    0.0000 C   0  0  0  0  0  0  0  0  0  0  0  0
   -0.7500    1.2990    0.0000 C   0  0  0  0  0  0  0  0  0  0  0  0
    0.7500    1.2990    0.0000 C   0  0  0  0  0  0  0  0  0  0  0  0
  1  2  3  0
  2  3  1  0
  3  4  1  0
  4  5  2  0
  5  6  1  0
  6  7  1  0
  7  8  1  0
  8  9  1  0
  9 10  1  0
 10 11  1  0
 11 12  1  0
  6 13  2  0
 13 14  1  0
 14  3  2  0
 12  7  1  0
M  END
>  <compound_id>  (196) 
DPC0196

>  <smiles>  (196) 
N#Cc1ccc(C2CCCCC2)cc1

>  <patent_id>  (196) 
DEMO-104-A1

>  <assignee>  (196) 
Mosaic Medicines

>  <publication_date>  (196) 
2024-11-21

>  <year>  (196) 
2024

>  <series>  (196) 
phenyl

>  <assay_id>  (196) 
ASSAY-04-05

>  <standard_relation>  (196) 
=

>  <pIC50>  (196) 
6.4

>  <project_note>  (196) 
primary measurement

>  <source_row>  (196) 
196

>  <status>  (196) 
accepted

>  <duplicate_group_size>  (196) 
1

>  <source_rows>  (196) 
196

>  <patent_ids>  (196) 
DEMO-104-A1

>  <assignees>  (196) 
Mosaic Medicines

>  <molecular_weight>  (196) 
185.27

>  <clogp>  (196) 
3.606

>  <tpsa>  (196) 
23.79

>  <hbd>  (196) 
0

>  <hba>  (196) 
1

>  <rotatable_bonds>  (196) 
1

>  <heavy_atoms>  (196) 
14

>  <rings>  (196) 
2

>  <pIC50_median>  (196) 
6.4

>  <n_measurements>  (196) 
1.0

>  <murcko_scaffold>  (196) 
c1ccc(C2CCCCC2)cc1

>  <scaffold_id>  (196) 
S004

>  <cluster_id>  (196) 
C029

$$$$
DPC0197
     RDKit          2D

  9  9  0  0  0  0  0  0  0  0999 V2000
    4.5000    0.0000    0.0000 N   0  0  0  0  0  0  0  0  0  0  0  0
    3.0000    0.0000    0.0000 C   0  0  0  0  0  0  0  0  0  0  0  0
    1.5000    0.0000    0.0000 C   0  0  0  0  0  0  0  0  0  0  0  0
    0.7500   -1.2990    0.0000 C   0  0  0  0  0  0  0  0  0  0  0  0
   -0.7500   -1.2990    0.0000 C   0  0  0  0  0  0  0  0  0  0  0  0
   -1.5000    0.0000    0.0000 C   0  0  0  0  0  0  0  0  0  0  0  0
   -3.0000    0.0000    0.0000 O   0  0  0  0  0  0  0  0  0  0  0  0
   -0.7500    1.2990    0.0000 C   0  0  0  0  0  0  0  0  0  0  0  0
    0.7500    1.2990    0.0000 C   0  0  0  0  0  0  0  0  0  0  0  0
  1  2  3  0
  2  3  1  0
  3  4  1  0
  4  5  2  0
  5  6  1  0
  6  7  1  0
  6  8  2  0
  8  9  1  0
  9  3  2  0
M  END
>  <compound_id>  (197) 
DPC0197

>  <smiles>  (197) 
N#Cc1ccc(O)cc1

>  <patent_id>  (197) 
DEMO-104-A1

>  <assignee>  (197) 
Mosaic Medicines

>  <publication_date>  (197) 
2024-11-21

>  <year>  (197) 
2024

>  <series>  (197) 
phenyl

>  <assay_id>  (197) 
ASSAY-04-06

>  <standard_relation>  (197) 
=

>  <pIC50>  (197) 
6.25

>  <project_note>  (197) 
primary measurement

>  <source_row>  (197) 
197

>  <status>  (197) 
accepted

>  <duplicate_group_size>  (197) 
1

>  <source_rows>  (197) 
197

>  <patent_ids>  (197) 
DEMO-104-A1

>  <assignees>  (197) 
Mosaic Medicines

>  <molecular_weight>  (197) 
119.123

>  <clogp>  (197) 
1.264

>  <tpsa>  (197) 
44.02

>  <hbd>  (197) 
1

>  <hba>  (197) 
2

>  <rotatable_bonds>  (197) 
0

>  <heavy_atoms>  (197) 
9

>  <rings>  (197) 
1

>  <pIC50_median>  (197) 
6.25

>  <n_measurements>  (197) 
1.0

>  <murcko_scaffold>  (197) 
c1ccccc1

>  <scaffold_id>  (197) 
S001

>  <cluster_id>  (197) 
C009

$$$$
DPC0198
     RDKit          2D

 11 11  0  0  0  0  0  0  0  0999 V2000
    4.5000    0.0000    0.0000 N   0  0  0  0  0  0  0  0  0  0  0  0
    3.0000    0.0000    0.0000 C   0  0  0  0  0  0  0  0  0  0  0  0
    1.5000    0.0000    0.0000 C   0  0  0  0  0  0  0  0  0  0  0  0
    0.7500   -1.2990    0.0000 C   0  0  0  0  0  0  0  0  0  0  0  0
   -0.7500   -1.2990    0.0000 C   0  0  0  0  0  0  0  0  0  0  0  0
   -1.5000    0.0000    0.0000 C   0  0  0  0  0  0  0  0  0  0  0  0
   -3.0000    0.0000    0.0000 C   0  0  0  0  0  0  0  0  0  0  0  0
   -3.7500   -1.2990    0.0000 O   0  0  0  0  0  0  0  0  0  0  0  0
   -3.7500    1.2990    0.0000 O   0  0  0  0  0  0  0  0  0  0  0  0
   -0.7500    1.2990    0.0000 C   0  0  0  0  0  0  0  0  0  0  0  0
    0.7500    1.2990    0.0000 C   0  0  0  0  0  0  0  0  0  0  0  0
  1  2  3  0
  2  3  1  0
  3  4  1  0
  4  5  2  0
  5  6  1  0
  6  7  1  0
  7  8  2  0
  7  9  1  0
  6 10  2  0
 10 11  1  0
 11  3  2  0
M  END
>  <compound_id>  (198) 
DPC0198

>  <smiles>  (198) 
N#Cc1ccc(C(=O)O)cc1

>  <patent_id>  (198) 
DEMO-104-A1

>  <assignee>  (198) 
Mosaic Medicines

>  <publication_date>  (198) 
2024-11-21

>  <year>  (198) 
2024

>  <series>  (198) 
phenyl

>  <assay_id>  (198) 
ASSAY-04-07

>  <standard_relation>  (198) 
=

>  <pIC50>  (198) 
6.4

>  <project_note>  (198) 
primary measurement

>  <source_row>  (198) 
198

>  <status>  (198) 
accepted

>  <duplicate_group_size>  (198) 
1

>  <source_rows>  (198) 
198

>  <patent_ids>  (198) 
DEMO-104-A1

>  <assignees>  (198) 
Mosaic Medicines

>  <molecular_weight>  (198) 
147.133

>  <clogp>  (198) 
1.256

>  <tpsa>  (198) 
61.09

>  <hbd>  (198) 
1

>  <hba>  (198) 
2

>  <rotatable_bonds>  (198) 
1

>  <heavy_atoms>  (198) 
11

>  <rings>  (198) 
1

>  <pIC50_median>  (198) 
6.4

>  <n_measurements>  (198) 
1.0

>  <murcko_scaffold>  (198) 
c1ccccc1

>  <scaffold_id>  (198) 
S001

>  <cluster_id>  (198) 
C009

$$$$
DPC0199
     RDKit          2D

 14 14  0  0  0  0  0  0  0  0999 V2000
    4.5000    0.0000    0.0000 F   0  0  0  0  0  0  0  0  0  0  0  0
    3.0000    0.0000    0.0000 C   0  0  0  0  0  0  0  0  0  0  0  0
    3.0000   -1.5000    0.0000 F   0  0  0  0  0  0  0  0  0  0  0  0
    3.0000    1.5000    0.0000 F   0  0  0  0  0  0  0  0  0  0  0  0
    1.5000    0.0000    0.0000 C   0  0  0  0  0  0  0  0  0  0  0  0
    0.7500   -1.2990    0.0000 C   0  0  0  0  0  0  0  0  0  0  0  0
   -0.7500   -1.2990    0.0000 C   0  0  0  0  0  0  0  0  0  0  0  0
   -1.5000    0.0000    0.0000 C   0  0  0  0  0  0  0  0  0  0  0  0
   -3.0000    0.0000    0.0000 C   0  0  0  0  0  0  0  0  0  0  0  0
   -4.5000    0.0000    0.0000 F   0  0  0  0  0  0  0  0  0  0  0  0
   -3.0000    1.5000    0.0000 F   0  0  0  0  0  0  0  0  0  0  0  0
   -3.0000   -1.5000    0.0000 F   0  0  0  0  0  0  0  0  0  0  0  0
   -0.7500    1.2990    0.0000 C   0  0  0  0  0  0  0  0  0  0  0  0
    0.7500    1.2990    0.0000 C   0  0  0  0  0  0  0  0  0  0  0  0
  1  2  1  0
  2  3  1  0
  2  4  1  0
  2  5  1  0
  5  6  1  0
  6  7  2  0
  7  8  1  0
  8  9  1  0
  9 10  1  0
  9 11  1  0
  9 12  1  0
  8 13  2  0
 13 14  1  0
 14  5  2  0
M  END
>  <compound_id>  (199) 
DPC0199

>  <smiles>  (199) 
FC(F)(F)c1ccc(C(F)(F)F)cc1

>  <patent_id>  (199) 
DEMO-104-A1

>  <assignee>  (199) 
Mosaic Medicines

>  <publication_date>  (199) 
2024-11-21

>  <year>  (199) 
2024

>  <series>  (199) 
phenyl

>  <assay_id>  (199) 
ASSAY-04-08

>  <standard_relation>  (199) 
=

>  <pIC50>  (199) 
6.62

>  <project_note>  (199) 
primary measurement

>  <source_row>  (199) 
199

>  <status>  (199) 
accepted

>  <duplicate_group_size>  (199) 
1

>  <source_rows>  (199) 
199

>  <patent_ids>  (199) 
DEMO-104-A1

>  <assignees>  (199) 
Mosaic Medicines

>  <molecular_weight>  (199) 
214.108

>  <clogp>  (199) 
3.724

>  <tpsa>  (199) 
0.0

>  <hbd>  (199) 
0

>  <hba>  (199) 
0

>  <rotatable_bonds>  (199) 
0

>  <heavy_atoms>  (199) 
14

>  <rings>  (199) 
1

>  <pIC50_median>  (199) 
6.62

>  <n_measurements>  (199) 
1.0

>  <murcko_scaffold>  (199) 
c1ccccc1

>  <scaffold_id>  (199) 
S001

>  <cluster_id>  (199) 
C006

$$$$
DPC0200
     RDKit          2D

 13 13  0  0  0  0  0  0  0  0999 V2000
    3.7500   -1.2990    0.0000 N   0  0  0  0  0  0  0  0  0  0  0  0
    3.0000    0.0000    0.0000 C   0  0  0  0  0  0  0  0  0  0  0  0
    3.7500    1.2990    0.0000 O   0  0  0  0  0  0  0  0  0  0  0  0
    1.5000    0.0000    0.0000 C   0  0  0  0  0  0  0  0  0  0  0  0
    0.7500   -1.2990    0.0000 C   0  0  0  0  0  0  0  0  0  0  0  0
   -0.7500   -1.2990    0.0000 C   0  0  0  0  0  0  0  0  0  0  0  0
   -1.5000    0.0000    0.0000 C   0  0  0  0  0  0  0  0  0  0  0  0
   -3.0000    0.0000    0.0000 C   0  0  0  0  0  0  0  0  0  0  0  0
   -4.5000    0.0000    0.0000 F   0  0  0  0  0  0  0  0  0  0  0  0
   -3.0000    1.5000    0.0000 F   0  0  0  0  0  0  0  0  0  0  0  0
   -3.0000   -1.5000    0.0000 F   0  0  0  0  0  0  0  0  0  0  0  0
   -0.7500    1.2990    0.0000 C   0  0  0  0  0  0  0  0  0  0  0  0
    0.7500    1.2990    0.0000 C   0  0  0  0  0  0  0  0  0  0  0  0
  1  2  1  0
  2  3  2  0
  2  4  1  0
  4  5  1  0
  5  6  2  0
  6  7  1  0
  7  8  1  0
  8  9  1  0
  8 10  1  0
  8 11  1  0
  7 12  2  0
 12 13  1  0
 13  4  2  0
M  END
>  <compound_id>  (200) 
DPC0200

>  <smiles>  (200) 
NC(=O)c1ccc(C(F)(F)F)cc1

>  <patent_id>  (200) 
DEMO-104-A1

>  <assignee>  (200) 
Mosaic Medicines

>  <publication_date>  (200) 
2024-11-21

>  <year>  (200) 
2024

>  <series>  (200) 
phenyl

>  <assay_id>  (200) 
ASSAY-04-09

>  <standard_relation>  (200) 
=

>  <pIC50>  (200) 
6.6

>  <project_note>  (200) 
primary measurement

>  <source_row>  (200) 
200

>  <status>  (200) 
accepted

>  <duplicate_group_size>  (200) 
1

>  <source_rows>  (200) 
200

>  <patent_ids>  (200) 
DEMO-104-A1

>  <assignees>  (200) 
Mosaic Medicines

>  <molecular_weight>  (200) 
189.136

>  <clogp>  (200) 
1.804

>  <tpsa>  (200) 
43.09

>  <hbd>  (200) 
1

>  <hba>  (200) 
1

>  <rotatable_bonds>  (200) 
1

>  <heavy_atoms>  (200) 
13

>  <rings>  (200) 
1

>  <pIC50_median>  (200) 
6.6

>  <n_measurements>  (200) 
1.0

>  <murcko_scaffold>  (200) 
c1ccccc1

>  <scaffold_id>  (200) 
S001

>  <cluster_id>  (200) 
C003

$$$$
DPC0201
     RDKit          2D

 14 14  0  0  0  0  0  0  0  0999 V2000
    5.2500   -1.2990    0.0000 C   0  0  0  0  0  0  0  0  0  0  0  0
    3.7500   -1.2990    0.0000 N   0  0  0  0  0  0  0  0  0  0  0  0
    3.0000    0.0000    0.0000 C   0  0  0  0  0  0  0  0  0  0  0  0
    3.7500    1.2990    0.0000 O   0  0  0  0  0  0  0  0  0  0  0  0
    1.5000    0.0000    0.0000 C   0  0  0  0  0  0  0  0  0  0  0  0
    0.7500   -1.2990    0.0000 C   0  0  0  0  0  0  0  0  0  0  0  0
   -0.7500   -1.2990    0.0000 C   0  0  0  0  0  0  0  0  0  0  0  0
   -1.5000    0.0000    0.0000 C   0  0  0  0  0  0  0  0  0  0  0  0
   -3.0000    0.0000    0.0000 C   0  0  0  0  0  0  0  0  0  0  0  0
   -4.5000    0.0000    0.0000 F   0  0  0  0  0  0  0  0  0  0  0  0
   -3.0000    1.5000    0.0000 F   0  0  0  0  0  0  0  0  0  0  0  0
   -3.0000   -1.5000    0.0000 F   0  0  0  0  0  0  0  0  0  0  0  0
   -0.7500    1.2990    0.0000 C   0  0  0  0  0  0  0  0  0  0  0  0
    0.7500    1.2990    0.0000 C   0  0  0  0  0  0  0  0  0  0  0  0
  1  2  1  0
  2  3  1  0
  3  4  2  0
  3  5  1  0
  5  6  1  0
  6  7  2  0
  7  8  1  0
  8  9  1  0
  9 10  1  0
  9 11  1  0
  9 12  1  0
  8 13  2  0
 13 14  1  0
 14  5  2  0
M  END
>  <compound_id>  (201) 
DPC0201

>  <smiles>  (201) 
CNC(=O)c1ccc(C(F)(F)F)cc1

>  <patent_id>  (201) 
DEMO-104-A1

>  <assignee>  (201) 
Mosaic Medicines

>  <publication_date>  (201) 
2024-11-21

>  <year>  (201) 
2024

>  <series>  (201) 
phenyl

>  <assay_id>  (201) 
ASSAY-04-10

>  <standard_relation>  (201) 
=

>  <pIC50>  (201) 
6.61

>  <project_note>  (201) 
primary measurement

>  <source_row>  (201) 
201

>  <status>  (201) 
accepted

>  <duplicate_group_size>  (201) 
1

>  <source_rows>  (201) 
201

>  <patent_ids>  (201) 
DEMO-104-A1

>  <assignees>  (201) 
Mosaic Medicines

>  <molecular_weight>  (201) 
203.163

>  <clogp>  (201) 
2.065

>  <tpsa>  (201) 
29.1

>  <hbd>  (201) 
1

>  <hba>  (201) 
1

>  <rotatable_bonds>  (201) 
1

>  <heavy_atoms>  (201) 
14

>  <rings>  (201) 
1

>  <pIC50_median>  (201) 
6.61

>  <n_measurements>  (201) 
1.0

>  <murcko_scaffold>  (201) 
c1ccccc1

>  <scaffold_id>  (201) 
S001

>  <cluster_id>  (201) 
C010

$$$$
DPC0202
     RDKit          2D

 14 14  0  0  0  0  0  0  0  0999 V2000
    4.5000    0.0000    0.0000 N   0  0  0  0  0  0  0  0  0  0  0  0
    3.0000    0.0000    0.0000 S   0  0  0  0  0  0  0  0  0  0  0  0
    3.0000   -1.5000    0.0000 O   0  0  0  0  0  0  0  0  0  0  0  0
    3.0000    1.5000    0.0000 O   0  0  0  0  0  0  0  0  0  0  0  0
    1.5000    0.0000    0.0000 C   0  0  0  0  0  0  0  0  0  0  0  0
    0.7500   -1.2990    0.0000 C   0  0  0  0  0  0  0  0  0  0  0  0
   -0.7500   -1.2990    0.0000 C   0  0  0  0  0  0  0  0  0  0  0  0
   -1.5000    0.0000    0.0000 C   0  0  0  0  0  0  0  0  0  0  0  0
   -3.0000    0.0000    0.0000 C   0  0  0  0  0  0  0  0  0  0  0  0
   -4.5000    0.0000    0.0000 F   0  0  0  0  0  0  0  0  0  0  0  0
   -3.0000    1.5000    0.0000 F   0  0  0  0  0  0  0  0  0  0  0  0
   -3.0000   -1.5000    0.0000 F   0  0  0  0  0  0  0  0  0  0  0  0
   -0.7500    1.2990    0.0000 C   0  0  0  0  0  0  0  0  0  0  0  0
    0.7500    1.2990    0.0000 C   0  0  0  0  0  0  0  0  0  0  0  0
  1  2  1  0
  2  3  2  0
  2  4  2  0
  2  5  1  0
  5  6  1  0
  6  7  2  0
  7  8  1  0
  8  9  1  0
  9 10  1  0
  9 11  1  0
  9 12  1  0
  8 13  2  0
 13 14  1  0
 14  5  2  0
M  END
>  <compound_id>  (202) 
DPC0202

>  <smiles>  (202) 
NS(=O)(=O)c1ccc(C(F)(F)F)cc1

>  <patent_id>  (202) 
DEMO-104-A1

>  <assignee>  (202) 
Mosaic Medicines

>  <publication_date>  (202) 
2024-11-21

>  <year>  (202) 
2024

>  <series>  (202) 
phenyl

>  <assay_id>  (202) 
ASSAY-04-11

>  <standard_relation>  (202) 
=

>  <pIC50>  (202) 
6.38

>  <project_note>  (202) 
primary measurement

>  <source_row>  (202) 
202

>  <status>  (202) 
accepted

>  <duplicate_group_size>  (202) 
1

>  <source_rows>  (202) 
202

>  <patent_ids>  (202) 
DEMO-104-A1

>  <assignees>  (202) 
Mosaic Medicines

>  <molecular_weight>  (202) 
225.191

>  <clogp>  (202) 
1.353

>  <tpsa>  (202) 
60.16

>  <hbd>  (202) 
1

>  <hba>  (202) 
2

>  <rotatable_bonds>  (202) 
1

>  <heavy_atoms>  (202) 
14

>  <rings>  (202) 
1

>  <pIC50_median>  (202) 
6.38

>  <n_measurements>  (202) 
1.0

>  <murcko_scaffold>  (202) 
c1ccccc1

>  <scaffold_id>  (202) 
S001

>  <cluster_id>  (202) 
C028

$$$$
DPC0203
     RDKit          2D

 15 15  0  0  0  0  0  0  0  0999 V2000
    4.5000   -2.5981    0.0000 F   0  0  0  0  0  0  0  0  0  0  0  0
    3.7500   -1.2990    0.0000 C   0  0  0  0  0  0  0  0  0  0  0  0
    5.0490   -0.5490    0.0000 F   0  0  0  0  0  0  0  0  0  0  0  0
    2.4510   -2.0490    0.0000 F   0  0  0  0  0  0  0  0  0  0  0  0
    3.0000    0.0000    0.0000 O   0  0  0  0  0  0  0  0  0  0  0  0
    1.5000    0.0000    0.0000 C   0  0  0  0  0  0  0  0  0  0  0  0
    0.7500   -1.2990    0.0000 C   0  0  0  0  0  0  0  0  0  0  0  0
   -0.7500   -1.2990    0.0000 C   0  0  0  0  0  0  0  0  0  0  0  0
   -1.5000    0.0000    0.0000 C   0  0  0  0  0  0  0  0  0  0  0  0
   -3.0000    0.0000    0.0000 C   0  0  0  0  0  0  0  0  0  0  0  0
   -4.5000    0.0000    0.0000 F   0  0  0  0  0  0  0  0  0  0  0  0
   -3.0000    1.5000    0.0000 F   0  0  0  0  0  0  0  0  0  0  0  0
   -3.0000   -1.5000    0.0000 F   0  0  0  0  0  0  0  0  0  0  0  0
   -0.7500    1.2990    0.0000 C   0  0  0  0  0  0  0  0  0  0  0  0
    0.7500    1.2990    0.0000 C   0  0  0  0  0  0  0  0  0  0  0  0
  1  2  1  0
  2  3  1  0
  2  4  1  0
  2  5  1  0
  5  6  1  0
  6  7  1  0
  7  8  2  0
  8  9  1  0
  9 10  1  0
 10 11  1  0
 10 12  1  0
 10 13  1  0
  9 14  2  0
 14 15  1  0
 15  6  2  0
M  END
>  <compound_id>  (203) 
DPC0203

>  <smiles>  (203) 
FC(F)(F)Oc1ccc(C(F)(F)F)cc1

>  <patent_id>  (203) 
DEMO-104-A1

>  <assignee>  (203) 
Mosaic Medicines

>  <publication_date>  (203) 
2024-11-21

>  <year>  (203) 
2024

>  <series>  (203) 
phenyl

>  <assay_id>  (203) 
ASSAY-04-12

>  <standard_relation>  (203) 
=

>  <pIC50>  (203) 
6.26

>  <project_note>  (203) 
primary measurement

>  <source_row>  (203) 
203

>  <status>  (203) 
accepted

>  <duplicate_group_size>  (203) 
1

>  <source_rows>  (203) 
203

>  <patent_ids>  (203) 
DEMO-104-A1

>  <assignees>  (203) 
Mosaic Medicines

>  <molecular_weight>  (203) 
230.107

>  <clogp>  (203) 
3.604

>  <tpsa>  (203) 
9.23

>  <hbd>  (203) 
0

>  <hba>  (203) 
1

>  <rotatable_bonds>  (203) 
1

>  <heavy_atoms>  (203) 
15

>  <rings>  (203) 
1

>  <pIC50_median>  (203) 
6.26

>  <n_measurements>  (203) 
1.0

>  <murcko_scaffold>  (203) 
c1ccccc1

>  <scaffold_id>  (203) 
S001

>  <cluster_id>  (203) 
C006

$$$$
DPC0204
     RDKit          2D

 16 17  0  0  0  0  0  0  0  0999 V2000
    4.5000    0.0000    0.0000 F   0  0  0  0  0  0  0  0  0  0  0  0
    3.0000    0.0000    0.0000 C   0  0  0  0  0  0  0  0  0  0  0  0
    3.0000   -1.5000    0.0000 F   0  0  0  0  0  0  0  0  0  0  0  0
    3.0000    1.5000    0.0000 F   0  0  0  0  0  0  0  0  0  0  0  0
    1.5000    0.0000    0.0000 C   0  0  0  0  0  0  0  0  0  0  0  0
    0.7500   -1.2990    0.0000 C   0  0  0  0  0  0  0  0  0  0  0  0
   -0.7500   -1.2990    0.0000 C   0  0  0  0  0  0  0  0  0  0  0  0
   -1.5000    0.0000    0.0000 C   0  0  0  0  0  0  0  0  0  0  0  0
   -3.0000    0.0000    0.0000 N   0  0  0  0  0  0  0  0  0  0  0  0
   -3.7500    1.2990    0.0000 C   0  0  0  0  0  0  0  0  0  0  0  0
   -5.2500    1.2990    0.0000 C   0  0  0  0  0  0  0  0  0  0  0  0
   -6.0000    0.0000    0.0000 O   0  0  0  0  0  0  0  0  0  0  0  0
   -5.2500   -1.2990    0.0000 C   0  0  0  0  0  0  0  0  0  0  0  0
   -3.7500   -1.2990    0.0000 C   0  0  0  0  0  0  0  0  0  0  0  0
   -0.7500    1.2990    0.0000 C   0  0  0  0  0  0  0  0  0  0  0  0
    0.7500    1.2990    0.0000 C   0  0  0  0  0  0  0  0  0  0  0  0
  1  2  1  0
  2  3  1  0
  2  4  1  0
  2  5  1  0
  5  6  1  0
  6  7  2  0
  7  8  1  0
  8  9  1  0
  9 10  1  0
 10 11  1  0
 11 12  1  0
 12 13  1  0
 13 14  1  0
  8 15  2  0
 15 16  1  0
 16  5  2  0
 14  9  1  0
M  END
>  <compound_id>  (204) 
DPC0204

>  <smiles>  (204) 
FC(F)(F)c1ccc(N2CCOCC2)cc1

>  <patent_id>  (204) 
DEMO-104-A1

>  <assignee>  (204) 
Mosaic Medicines

>  <publication_date>  (204) 
2024-11-21

>  <year>  (204) 
2024

>  <series>  (204) 
phenyl

>  <assay_id>  (204) 
ASSAY-04-01

>  <standard_relation>  (204) 
=

>  <pIC50>  (204) 
6.38

>  <project_note>  (204) 
primary measurement

>  <source_row>  (204) 
204

>  <status>  (204) 
accepted

>  <duplicate_group_size>  (204) 
1

>  <source_rows>  (204) 
204

>  <patent_ids>  (204) 
DEMO-104-A1

>  <assignees>  (204) 
Mosaic Medicines

>  <molecular_weight>  (204) 
231.217

>  <clogp>  (204) 
2.542

>  <tpsa>  (204) 
12.47

>  <hbd>  (204) 
0

>  <hba>  (204) 
2

>  <rotatable_bonds>  (204) 
1

>  <heavy_atoms>  (204) 
16

>  <rings>  (204) 
2

>  <pIC50_median>  (204) 
6.38

>  <n_measurements>  (204) 
1.0

>  <murcko_scaffold>  (204) 
c1ccc(N2CCOCC2)cc1

>  <scaffold_id>  (204) 
S002

>  <cluster_id>  (204) 
C011

$$$$
DPC0205
     RDKit          2D

 13 14  0  0  0  0  0  0  0  0999 V2000
    4.5000    0.0000    0.0000 F   0  0  0  0  0  0  0  0  0  0  0  0
    3.0000    0.0000    0.0000 C   0  0  0  0  0  0  0  0  0  0  0  0
    3.0000   -1.5000    0.0000 F   0  0  0  0  0  0  0  0  0  0  0  0
    3.0000    1.5000    0.0000 F   0  0  0  0  0  0  0  0  0  0  0  0
    1.5000    0.0000    0.0000 C   0  0  0  0  0  0  0  0  0  0  0  0
    0.7500   -1.2990    0.0000 C   0  0  0  0  0  0  0  0  0  0  0  0
   -0.7500   -1.2990    0.0000 C   0  0  0  0  0  0  0  0  0  0  0  0
   -1.5000    0.0000    0.0000 C   0  0  0  0  0  0  0  0  0  0  0  0
   -3.0000    0.0000    0.0000 C   0  0  0  0  0  0  0  0  0  0  0  0
   -4.2990   -0.7500    0.0000 C   0  0  0  0  0  0  0  0  0  0  0  0
   -4.2990    0.7500    0.0000 C   0  0  0  0  0  0  0  0  0  0  0  0
   -0.7500    1.2990    0.0000 C   0  0  0  0  0  0  0  0  0  0  0  0
    0.7500    1.2990    0.0000 C   0  0  0  0  0  0  0  0  0  0  0  0
  1  2  1  0
  2  3  1  0
  2  4  1  0
  2  5  1  0
  5  6  1  0
  6  7  2  0
  7  8  1  0
  8  9  1  0
  9 10  1  0
 10 11  1  0
  8 12  2  0
 12 13  1  0
 13  5  2  0
 11  9  1  0
M  END
>  <compound_id>  (205) 
DPC0205

>  <smiles>  (205) 
FC(F)(F)c1ccc(C2CC2)cc1

>  <patent_id>  (205) 
DEMO-104-A1

>  <assignee>  (205) 
Mosaic Medicines

>  <publication_date>  (205) 
2024-11-21

>  <year>  (205) 
2024

>  <series>  (205) 
phenyl

>  <assay_id>  (205) 
ASSAY-04-02

>  <standard_relation>  (205) 
=

>  <pIC50>  (205) 
6.08

>  <project_note>  (205) 
primary measurement

>  <source_row>  (205) 
205

>  <status>  (205) 
accepted

>  <duplicate_group_size>  (205) 
1

>  <source_rows>  (205) 
205

>  <patent_ids>  (205) 
DEMO-104-A1

>  <assignees>  (205) 
Mosaic Medicines

>  <molecular_weight>  (205) 
186.176

>  <clogp>  (205) 
3.583

>  <tpsa>  (205) 
0.0

>  <hbd>  (205) 
0

>  <hba>  (205) 
0

>  <rotatable_bonds>  (205) 
1

>  <heavy_atoms>  (205) 
13

>  <rings>  (205) 
2

>  <pIC50_median>  (205) 
6.08

>  <n_measurements>  (205) 
1.0

>  <murcko_scaffold>  (205) 
c1ccc(C2CC2)cc1

>  <scaffold_id>  (205) 
S003

>  <cluster_id>  (205) 
C006

$$$$
DPC0206
     RDKit          2D

 16 17  0  0  0  0  0  0  0  0999 V2000
    4.5000    0.0000    0.0000 F   0  0  0  0  0  0  0  0  0  0  0  0
    3.0000    0.0000    0.0000 C   0  0  0  0  0  0  0  0  0  0  0  0
    3.0000   -1.5000    0.0000 F   0  0  0  0  0  0  0  0  0  0  0  0
    3.0000    1.5000    0.0000 F   0  0  0  0  0  0  0  0  0  0  0  0
    1.5000    0.0000    0.0000 C   0  0  0  0  0  0  0  0  0  0  0  0
    0.7500   -1.2990    0.0000 C   0  0  0  0  0  0  0  0  0  0  0  0
   -0.7500   -1.2990    0.0000 C   0  0  0  0  0  0  0  0  0  0  0  0
   -1.5000    0.0000    0.0000 C   0  0  0  0  0  0  0  0  0  0  0  0
   -3.0000    0.0000    0.0000 C   0  0  0  0  0  0  0  0  0  0  0  0
   -3.7500    1.2990    0.0000 C   0  0  0  0  0  0  0  0  0  0  0  0
   -5.2500    1.2990    0.0000 C   0  0  0  0  0  0  0  0  0  0  0  0
   -6.0000    0.0000    0.0000 C   0  0  0  0  0  0  0  0  0  0  0  0
   -5.2500   -1.2990    0.0000 C   0  0  0  0  0  0  0  0  0  0  0  0
   -3.7500   -1.2990    0.0000 C   0  0  0  0  0  0  0  0  0  0  0  0
   -0.7500    1.2990    0.0000 C   0  0  0  0  0  0  0  0  0  0  0  0
    0.7500    1.2990    0.0000 C   0  0  0  0  0  0  0  0  0  0  0  0
  1  2  1  0
  2  3  1  0
  2  4  1  0
  2  5  1  0
  5  6  1  0
  6  7  2  0
  7  8  1  0
  8  9  1  0
  9 10  1  0
 10 11  1  0
 11 12  1  0
 12 13  1  0
 13 14  1  0
  8 15  2  0
 15 16  1  0
 16  5  2  0
 14  9  1  0
M  END
>  <compound_id>  (206) 
DPC0206

>  <smiles>  (206) 
FC(F)(F)c1ccc(C2CCCCC2)cc1

>  <patent_id>  (206) 
DEMO-104-A1

>  <assignee>  (206) 
Mosaic Medicines

>  <publication_date>  (206) 
2024-11-21

>  <year>  (206) 
2024

>  <series>  (206) 
phenyl

>  <assay_id>  (206) 
ASSAY-04-03

>  <standard_relation>  (206) 
=

>  <pIC50>  (206) 
6.28

>  <project_note>  (206) 
primary measurement

>  <source_row>  (206) 
206

>  <status>  (206) 
accepted

>  <duplicate_group_size>  (206) 
1

>  <source_rows>  (206) 
206

>  <patent_ids>  (206) 
DEMO-104-A1

>  <assignees>  (206) 
Mosaic Medicines

>  <molecular_weight>  (206) 
228.257

>  <clogp>  (206) 
4.753

>  <tpsa>  (206) 
0.0

>  <hbd>  (206) 
0

>  <hba>  (206) 
0

>  <rotatable_bonds>  (206) 
1

>  <heavy_atoms>  (206) 
16

>  <rings>  (206) 
2

>  <pIC50_median>  (206) 
6.28

>  <n_measurements>  (206) 
1.0

>  <murcko_scaffold>  (206) 
c1ccc(C2CCCCC2)cc1

>  <scaffold_id>  (206) 
S004

>  <cluster_id>  (206) 
C027

$$$$
DPC0207
     RDKit          2D

 11 11  0  0  0  0  0  0  0  0999 V2000
    3.0000    0.0000    0.0000 O   0  0  0  0  0  0  0  0  0  0  0  0
    1.5000    0.0000    0.0000 C   0  0  0  0  0  0  0  0  0  0  0  0
    0.7500   -1.2990    0.0000 C   0  0  0  0  0  0  0  0  0  0  0  0
   -0.7500   -1.2990    0.0000 C   0  0  0  0  0  0  0  0  0  0  0  0
   -1.5000    0.0000    0.0000 C   0  0  0  0  0  0  0  0  0  0  0  0
   -3.0000    0.0000    0.0000 C   0  0  0  0  0  0  0  0  0  0  0  0
   -4.5000    0.0000    0.0000 F   0  0  0  0  0  0  0  0  0  0  0  0
   -3.0000    1.5000    0.0000 F   0  0  0  0  0  0  0  0  0  0  0  0
   -3.0000   -1.5000    0.0000 F   0  0  0  0  0  0  0  0  0  0  0  0
   -0.7500    1.2990    0.0000 C   0  0  0  0  0  0  0  0  0  0  0  0
    0.7500    1.2990    0.0000 C   0  0  0  0  0  0  0  0  0  0  0  0
  1  2  1  0
  2  3  1  0
  3  4  2  0
  4  5  1  0
  5  6  1  0
  6  7  1  0
  6  8  1  0
  6  9  1  0
  5 10  2  0
 10 11  1  0
 11  2  2  0
M  END
>  <compound_id>  (207) 
DPC0207

>  <smiles>  (207) 
Oc1ccc(C(F)(F)F)cc1

>  <patent_id>  (207) 
DEMO-104-A1

>  <assignee>  (207) 
Mosaic Medicines

>  <publication_date>  (207) 
2024-11-21

>  <year>  (207) 
2024

>  <series>  (207) 
phenyl

>  <assay_id>  (207) 
ASSAY-04-04

>  <standard_relation>  (207) 
<

>  <pIC50>  (207) 
6.21

>  <project_note>  (207) 
primary measurement

>  <source_row>  (207) 
207

>  <status>  (207) 
accepted

>  <duplicate_group_size>  (207) 
1

>  <source_rows>  (207) 
207

>  <patent_ids>  (207) 
DEMO-104-A1

>  <assignees>  (207) 
Mosaic Medicines

>  <molecular_weight>  (207) 
162.11

>  <clogp>  (207) 
2.411

>  <tpsa>  (207) 
20.23

>  <hbd>  (207) 
1

>  <hba>  (207) 
1

>  <rotatable_bonds>  (207) 
0

>  <heavy_atoms>  (207) 
11

>  <rings>  (207) 
1

>  <murcko_scaffold>  (207) 
c1ccccc1

>  <scaffold_id>  (207) 
S001

>  <cluster_id>  (207) 
C006

$$$$
DPC0208
     RDKit          2D

 13 13  0  0  0  0  0  0  0  0999 V2000
    3.7500    1.2990    0.0000 O   0  0  0  0  0  0  0  0  0  0  0  0
    3.0000    0.0000    0.0000 C   0  0  0  0  0  0  0  0  0  0  0  0
    3.7500   -1.2990    0.0000 O   0  0  0  0  0  0  0  0  0  0  0  0
    1.5000    0.0000    0.0000 C   0  0  0  0  0  0  0  0  0  0  0  0
    0.7500   -1.2990    0.0000 C   0  0  0  0  0  0  0  0  0  0  0  0
   -0.7500   -1.2990    0.0000 C   0  0  0  0  0  0  0  0  0  0  0  0
   -1.5000    0.0000    0.0000 C   0  0  0  0  0  0  0  0  0  0  0  0
   -3.0000    0.0000    0.0000 C   0  0  0  0  0  0  0  0  0  0  0  0
   -4.5000    0.0000    0.0000 F   0  0  0  0  0  0  0  0  0  0  0  0
   -3.0000    1.5000    0.0000 F   0  0  0  0  0  0  0  0  0  0  0  0
   -3.0000   -1.5000    0.0000 F   0  0  0  0  0  0  0  0  0  0  0  0
   -0.7500    1.2990    0.0000 C   0  0  0  0  0  0  0  0  0  0  0  0
    0.7500    1.2990    0.0000 C   0  0  0  0  0  0  0  0  0  0  0  0
  1  2  2  0
  2  3  1  0
  2  4  1  0
  4  5  1  0
  5  6  2  0
  6  7  1  0
  7  8  1  0
  8  9  1  0
  8 10  1  0
  8 11  1  0
  7 12  2  0
 12 13  1  0
 13  4  2  0
M  END
>  <compound_id>  (208) 
DPC0208

>  <smiles>  (208) 
O=C(O)c1ccc(C(F)(F)F)cc1

>  <patent_id>  (208) 
DEMO-104-A1

>  <assignee>  (208) 
Mosaic Medicines

>  <publication_date>  (208) 
2024-11-21

>  <year>  (208) 
2024

>  <series>  (208) 
phenyl

>  <assay_id>  (208) 
ASSAY-04-05

>  <standard_relation>  (208) 
=

>  <pIC50>  (208) 
6.36

>  <project_note>  (208) 
primary measurement

>  <source_row>  (208) 
208

>  <status>  (208) 
accepted

>  <duplicate_group_size>  (208) 
1

>  <source_rows>  (208) 
208

>  <patent_ids>  (208) 
DEMO-104-A1

>  <assignees>  (208) 
Mosaic Medicines

>  <molecular_weight>  (208) 
190.12

>  <clogp>  (208) 
2.404

>  <tpsa>  (208) 
37.3

>  <hbd>  (208) 
1

>  <hba>  (208) 
1

>  <rotatable_bonds>  (208) 
1

>  <heavy_atoms>  (208) 
13

>  <rings>  (208) 
1

>  <pIC50_median>  (208) 
6.36

>  <n_measurements>  (208) 
1.0

>  <murcko_scaffold>  (208) 
c1ccccc1

>  <scaffold_id>  (208) 
S001

>  <cluster_id>  (208) 
C006

$$$$
DPC0209
     RDKit          2D

 12 12  0  0  0  0  0  0  0  0999 V2000
    3.7500   -1.2990    0.0000 N   0  0  0  0  0  0  0  0  0  0  0  0
    3.0000    0.0000    0.0000 C   0  0  0  0  0  0  0  0  0  0  0  0
    3.7500    1.2990    0.0000 O   0  0  0  0  0  0  0  0  0  0  0  0
    1.5000    0.0000    0.0000 C   0  0  0  0  0  0  0  0  0  0  0  0
    0.7500   -1.2990    0.0000 C   0  0  0  0  0  0  0  0  0  0  0  0
   -0.7500   -1.2990    0.0000 C   0  0  0  0  0  0  0  0  0  0  0  0
   -1.5000    0.0000    0.0000 C   0  0  0  0  0  0  0  0  0  0  0  0
   -3.0000    0.0000    0.0000 C   0  0  0  0  0  0  0  0  0  0  0  0
   -3.7500    1.2990    0.0000 N   0  0  0  0  0  0  0  0  0  0  0  0
   -3.7500   -1.2990    0.0000 O   0  0  0  0  0  0  0  0  0  0  0  0
   -0.7500    1.2990    0.0000 C   0  0  0  0  0  0  0  0  0  0  0  0
    0.7500    1.2990    0.0000 C   0  0  0  0  0  0  0  0  0  0  0  0
  1  2  1  0
  2  3  2  0
  2  4  1  0
  4  5  1  0
  5  6  2  0
  6  7  1  0
  7  8  1  0
  8  9  1  0
  8 10  2  0
  7 11  2  0
 11 12  1  0
 12  4  2  0
M  END
>  <compound_id>  (209) 
DPC0209

>  <smiles>  (209) 
NC(=O)c1ccc(C(N)=O)cc1

>  <patent_id>  (209) 
DEMO-104-A1

>  <assignee>  (209) 
Mosaic Medicines

>  <publication_date>  (209) 
2024-11-21

>  <year>  (209) 
2024

>  <series>  (209) 
phenyl

>  <assay_id>  (209) 
ASSAY-04-06

>  <standard_relation>  (209) 
=

>  <pIC50>  (209) 
6.49

>  <project_note>  (209) 
primary measurement

>  <source_row>  (209) 
209

>  <status>  (209) 
accepted

>  <duplicate_group_size>  (209) 
1

>  <source_rows>  (209) 
209

>  <patent_ids>  (209) 
DEMO-104-A1

>  <assignees>  (209) 
Mosaic Medicines

>  <molecular_weight>  (209) 
164.164

>  <clogp>  (209) 
-0.116

>  <tpsa>  (209) 
86.18

>  <hbd>  (209) 
2

>  <hba>  (209) 
2

>  <rotatable_bonds>  (209) 
2

>  <heavy_atoms>  (209) 
12

>  <rings>  (209) 
1

>  <pIC50_median>  (209) 
6.49

>  <n_measurements>  (209) 
1.0

>  <murcko_scaffold>  (209) 
c1ccccc1

>  <scaffold_id>  (209) 
S001

>  <cluster_id>  (209) 
C003

$$$$
DPC0210
     RDKit          2D

 13 13  0  0  0  0  0  0  0  0999 V2000
    5.2500   -1.2990    0.0000 C   0  0  0  0  0  0  0  0  0  0  0  0
    3.7500   -1.2990    0.0000 N   0  0  0  0  0  0  0  0  0  0  0  0
    3.0000    0.0000    0.0000 C   0  0  0  0  0  0  0  0  0  0  0  0
    3.7500    1.2990    0.0000 O   0  0  0  0  0  0  0  0  0  0  0  0
    1.5000    0.0000    0.0000 C   0  0  0  0  0  0  0  0  0  0  0  0
    0.7500   -1.2990    0.0000 C   0  0  0  0  0  0  0  0  0  0  0  0
   -0.7500   -1.2990    0.0000 C   0  0  0  0  0  0  0  0  0  0  0  0
   -1.5000    0.0000    0.0000 C   0  0  0  0  0  0  0  0  0  0  0  0
   -3.0000    0.0000    0.0000 C   0  0  0  0  0  0  0  0  0  0  0  0
   -3.7500    1.2990    0.0000 N   0  0  0  0  0  0  0  0  0  0  0  0
   -3.7500   -1.2990    0.0000 O   0  0  0  0  0  0  0  0  0  0  0  0
   -0.7500    1.2990    0.0000 C   0  0  0  0  0  0  0  0  0  0  0  0
    0.7500    1.2990    0.0000 C   0  0  0  0  0  0  0  0  0  0  0  0
  1  2  1  0
  2  3  1  0
  3  4  2  0
  3  5  1  0
  5  6  1  0
  6  7  2  0
  7  8  1  0
  8  9  1  0
  9 10  1  0
  9 11  2  0
  8 12  2  0
 12 13  1  0
 13  5  2  0
M  END
>  <compound_id>  (210) 
DPC0210

>  <smiles>  (210) 
CNC(=O)c1ccc(C(N)=O)cc1

>  <patent_id>  (210) 
DEMO-104-A1

>  <assignee>  (210) 
Mosaic Medicines

>  <publication_date>  (210) 
2024-11-21

>  <year>  (210) 
2024

>  <series>  (210) 
phenyl

>  <assay_id>  (210) 
ASSAY-04-07

>  <standard_relation>  (210) 
=

>  <pIC50>  (210) 
6.51

>  <project_note>  (210) 
primary measurement

>  <source_row>  (210) 
210

>  <status>  (210) 
accepted

>  <duplicate_group_size>  (210) 
1

>  <source_rows>  (210) 
210

>  <patent_ids>  (210) 
DEMO-104-A1

>  <assignees>  (210) 
Mosaic Medicines

>  <molecular_weight>  (210) 
178.191

>  <clogp>  (210) 
0.145

>  <tpsa>  (210) 
72.19

>  <hbd>  (210) 
2

>  <hba>  (210) 
2

>  <rotatable_bonds>  (210) 
2

>  <heavy_atoms>  (210) 
13

>  <rings>  (210) 
1

>  <pIC50_median>  (210) 
6.51

>  <n_measurements>  (210) 
1.0

>  <murcko_scaffold>  (210) 
c1ccccc1

>  <scaffold_id>  (210) 
S001

>  <cluster_id>  (210) 
C003

$$$$
DPC0211
     RDKit          2D

 13 13  0  0  0  0  0  0  0  0999 V2000
    3.7500   -1.2990    0.0000 N   0  0  0  0  0  0  0  0  0  0  0  0
    3.0000    0.0000    0.0000 C   0  0  0  0  0  0  0  0  0  0  0  0
    3.7500    1.2990    0.0000 O   0  0  0  0  0  0  0  0  0  0  0  0
    1.5000    0.0000    0.0000 C   0  0  0  0  0  0  0  0  0  0  0  0
    0.7500   -1.2990    0.0000 C   0  0  0  0  0  0  0  0  0  0  0  0
   -0.7500   -1.2990    0.0000 C   0  0  0  0  0  0  0  0  0  0  0  0
   -1.5000    0.0000    0.0000 C   0  0  0  0  0  0  0  0  0  0  0  0
   -3.0000    0.0000    0.0000 S   0  0  0  0  0  0  0  0  0  0  0  0
   -4.5000    0.0000    0.0000 N   0  0  0  0  0  0  0  0  0  0  0  0
   -3.0000    1.5000    0.0000 O   0  0  0  0  0  0  0  0  0  0  0  0
   -3.0000   -1.5000    0.0000 O   0  0  0  0  0  0  0  0  0  0  0  0
   -0.7500    1.2990    0.0000 C   0  0  0  0  0  0  0  0  0  0  0  0
    0.7500    1.2990    0.0000 C   0  0  0  0  0  0  0  0  0  0  0  0
  1  2  1  0
  2  3  2  0
  2  4  1  0
  4  5  1  0
  5  6  2  0
  6  7  1  0
  7  8  1  0
  8  9  1  0
  8 10  2  0
  8 11  2  0
  7 12  2  0
 12 13  1  0
 13  4  2  0
M  END
>  <compound_id>  (211) 
DPC0211

>  <smiles>  (211) 
NC(=O)c1ccc(S(N)(=O)=O)cc1

>  <patent_id>  (211) 
DEMO-104-A1

>  <assignee>  (211) 
Mosaic Medicines

>  <publication_date>  (211) 
2024-11-21

>  <year>  (211) 
2024

>  <series>  (211) 
phenyl

>  <assay_id>  (211) 
ASSAY-04-08

>  <standard_relation>  (211) 
=

>  <pIC50>  (211) 
6.31

>  <project_note>  (211) 
primary measurement

>  <source_row>  (211) 
211

>  <status>  (211) 
accepted

>  <duplicate_group_size>  (211) 
1

>  <source_rows>  (211) 
211

>  <patent_ids>  (211) 
DEMO-104-A1

>  <assignees>  (211) 
Mosaic Medicines

>  <molecular_weight>  (211) 
200.219

>  <clogp>  (211) 
-0.567

>  <tpsa>  (211) 
103.25

>  <hbd>  (211) 
2

>  <hba>  (211) 
3

>  <rotatable_bonds>  (211) 
2

>  <heavy_atoms>  (211) 
13

>  <rings>  (211) 
1

>  <pIC50_median>  (211) 
6.31

>  <n_measurements>  (211) 
1.0

>  <murcko_scaffold>  (211) 
c1ccccc1

>  <scaffold_id>  (211) 
S001

>  <cluster_id>  (211) 
C003

$$$$
DPC0212
     RDKit          2D

 14 14  0  0  0  0  0  0  0  0999 V2000
    3.7500   -1.2990    0.0000 N   0  0  0  0  0  0  0  0  0  0  0  0
    3.0000    0.0000    0.0000 C   0  0  0  0  0  0  0  0  0  0  0  0
    3.7500    1.2990    0.0000 O   0  0  0  0  0  0  0  0  0  0  0  0
    1.5000    0.0000    0.0000 C   0  0  0  0  0  0  0  0  0  0  0  0
    0.7500   -1.2990    0.0000 C   0  0  0  0  0  0  0  0  0  0  0  0
   -0.7500   -1.2990    0.0000 C   0  0  0  0  0  0  0  0  0  0  0  0
   -1.5000    0.0000    0.0000 C   0  0  0  0  0  0  0  0  0  0  0  0
   -3.0000    0.0000    0.0000 O   0  0  0  0  0  0  0  0  0  0  0  0
   -3.7500    1.2990    0.0000 C   0  0  0  0  0  0  0  0  0  0  0  0
   -4.5000    2.5981    0.0000 F   0  0  0  0  0  0  0  0  0  0  0  0
   -5.0490    0.5490    0.0000 F   0  0  0  0  0  0  0  0  0  0  0  0
   -2.4510    2.0490    0.0000 F   0  0  0  0  0  0  0  0  0  0  0  0
   -0.7500    1.2990    0.0000 C   0  0  0  0  0  0  0  0  0  0  0  0
    0.7500    1.2990    0.0000 C   0  0  0  0  0  0  0  0  0  0  0  0
  1  2  1  0
  2  3  2  0
  2  4  1  0
  4  5  1  0
  5  6  2  0
  6  7  1  0
  7  8  1  0
  8  9  1  0
  9 10  1  0
  9 11  1  0
  9 12  1  0
  7 13  2  0
 13 14  1  0
 14  4  2  0
M  END
>  <compound_id>  (212) 
DPC0212

>  <smiles>  (212) 
NC(=O)c1ccc(OC(F)(F)F)cc1

>  <patent_id>  (212) 
DEMO-104-A1

>  <assignee>  (212) 
Mosaic Medicines

>  <publication_date>  (212) 
2024-11-21

>  <year>  (212) 
2024

>  <series>  (212) 
phenyl

>  <assay_id>  (212) 
ASSAY-04-09

>  <standard_relation>  (212) 
=

>  <pIC50>  (212) 
6.24

>  <project_note>  (212) 
primary measurement

>  <source_row>  (212) 
212

>  <status>  (212) 
accepted

>  <duplicate_group_size>  (212) 
1

>  <source_rows>  (212) 
212

>  <patent_ids>  (212) 
DEMO-104-A1

>  <assignees>  (212) 
Mosaic Medicines

>  <molecular_weight>  (212) 
205.135

>  <clogp>  (212) 
1.684

>  <tpsa>  (212) 
52.32

>  <hbd>  (212) 
1

>  <hba>  (212) 
2

>  <rotatable_bonds>  (212) 
2

>  <heavy_atoms>  (212) 
14

>  <rings>  (212) 
1

>  <pIC50_median>  (212) 
6.24

>  <n_measurements>  (212) 
1.0

>  <murcko_scaffold>  (212) 
c1ccccc1

>  <scaffold_id>  (212) 
S001

>  <cluster_id>  (212) 
C026

$$$$
DPC0213
     RDKit          2D

 15 16  0  0  0  0  0  0  0  0999 V2000
    3.7500   -1.2990    0.0000 N   0  0  0  0  0  0  0  0  0  0  0  0
    3.0000    0.0000    0.0000 C   0  0  0  0  0  0  0  0  0  0  0  0
    3.7500    1.2990    0.0000 O   0  0  0  0  0  0  0  0  0  0  0  0
    1.5000    0.0000    0.0000 C   0  0  0  0  0  0  0  0  0  0  0  0
    0.7500   -1.2990    0.0000 C   0  0  0  0  0  0  0  0  0  0  0  0
   -0.7500   -1.2990    0.0000 C   0  0  0  0  0  0  0  0  0  0  0  0
   -1.5000    0.0000    0.0000 C   0  0  0  0  0  0  0  0  0  0  0  0
   -3.0000    0.0000    0.0000 N   0  0  0  0  0  0  0  0  0  0  0  0
   -3.7500    1.2990    0.0000 C   0  0  0  0  0  0  0  0  0  0  0  0
   -5.2500    1.2990    0.0000 C   0  0  0  0  0  0  0  0  0  0  0  0
   -6.0000    0.0000    0.0000 O   0  0  0  0  0  0  0  0  0  0  0  0
   -5.2500   -1.2990    0.0000 C   0  0  0  0  0  0  0  0  0  0  0  0
   -3.7500   -1.2990    0.0000 C   0  0  0  0  0  0  0  0  0  0  0  0
   -0.7500    1.2990    0.0000 C   0  0  0  0  0  0  0  0  0  0  0  0
    0.7500    1.2990    0.0000 C   0  0  0  0  0  0  0  0  0  0  0  0
  1  2  1  0
  2  3  2  0
  2  4  1  0
  4  5  1  0
  5  6  2  0
  6  7  1  0
  7  8  1  0
  8  9  1  0
  9 10  1  0
 10 11  1  0
 11 12  1  0
 12 13  1  0
  7 14  2  0
 14 15  1  0
 15  4  2  0
 13  8  1  0
M  END
>  <compound_id>  (213) 
DPC0213

>  <smiles>  (213) 
NC(=O)c1ccc(N2CCOCC2)cc1

>  <patent_id>  (213) 
DEMO-104-A1

>  <assignee>  (213) 
Mosaic Medicines

>  <publication_date>  (213) 
2024-11-21

>  <year>  (213) 
2024

>  <series>  (213) 
phenyl

>  <assay_id>  (213) 
ASSAY-04-10

>  <standard_relation>  (213) 
=

>  <pIC50>  (213) 
6.43

>  <project_note>  (213) 
primary measurement

>  <source_row>  (213) 
213

>  <status>  (213) 
accepted

>  <duplicate_group_size>  (213) 
1

>  <source_rows>  (213) 
213

>  <patent_ids>  (213) 
DEMO-104-A1

>  <assignees>  (213) 
Mosaic Medicines

>  <molecular_weight>  (213) 
206.245

>  <clogp>  (213) 
0.622

>  <tpsa>  (213) 
55.56

>  <hbd>  (213) 
1

>  <hba>  (213) 
3

>  <rotatable_bonds>  (213) 
2

>  <heavy_atoms>  (213) 
15

>  <rings>  (213) 
2

>  <pIC50_median>  (213) 
6.43

>  <n_measurements>  (213) 
1.0

>  <murcko_scaffold>  (213) 
c1ccc(N2CCOCC2)cc1

>  <scaffold_id>  (213) 
S002

>  <cluster_id>  (213) 
C011

$$$$
DPC0214
     RDKit          2D

 12 13  0  0  0  0  0  0  0  0999 V2000
    3.7500   -1.2990    0.0000 N   0  0  0  0  0  0  0  0  0  0  0  0
    3.0000    0.0000    0.0000 C   0  0  0  0  0  0  0  0  0  0  0  0
    3.7500    1.2990    0.0000 O   0  0  0  0  0  0  0  0  0  0  0  0
    1.5000    0.0000    0.0000 C   0  0  0  0  0  0  0  0  0  0  0  0
    0.7500   -1.2990    0.0000 C   0  0  0  0  0  0  0  0  0  0  0  0
   -0.7500   -1.2990    0.0000 C   0  0  0  0  0  0  0  0  0  0  0  0
   -1.5000    0.0000    0.0000 C   0  0  0  0  0  0  0  0  0  0  0  0
   -3.0000    0.0000    0.0000 C   0  0  0  0  0  0  0  0  0  0  0  0
   -4.2990   -0.7500    0.0000 C   0  0  0  0  0  0  0  0  0  0  0  0
   -4.2990    0.7500    0.0000 C   0  0  0  0  0  0  0  0  0  0  0  0
   -0.7500    1.2990    0.0000 C   0  0  0  0  0  0  0  0  0  0  0  0
    0.7500    1.2990    0.0000 C   0  0  0  0  0  0  0  0  0  0  0  0
  1  2  1  0
  2  3  2  0
  2  4  1  0
  4  5  1  0
  5  6  2  0
  6  7  1  0
  7  8  1  0
  8  9  1  0
  9 10  1  0
  7 11  2  0
 11 12  1  0
 12  4  2  0
 10  8  1  0
M  END
>  <compound_id>  (214) 
DPC0214

>  <smiles>  (214) 
NC(=O)c1ccc(C2CC2)cc1

>  <patent_id>  (214) 
DEMO-104-A1

>  <assignee>  (214) 
Mosaic Medicines

>  <publication_date>  (214) 
2024-11-21

>  <year>  (214) 
2024

>  <series>  (214) 
phenyl

>  <assay_id>  (214) 
ASSAY-04-11

>  <standard_relation>  (214) 
=

>  <pIC50>  (214) 
6.19

>  <project_note>  (214) 
primary measurement

>  <source_row>  (214) 
214

>  <status>  (214) 
accepted

>  <duplicate_group_size>  (214) 
1

>  <source_rows>  (214) 
214

>  <patent_ids>  (214) 
DEMO-104-A1

>  <assignees>  (214) 
Mosaic Medicines

>  <molecular_weight>  (214) 
161.204

>  <clogp>  (214) 
1.663

>  <tpsa>  (214) 
43.09

>  <hbd>  (214) 
1

>  <hba>  (214) 
1

>  <rotatable_bonds>  (214) 
2

>  <heavy_atoms>  (214) 
12

>  <rings>  (214) 
2

>  <pIC50_median>  (214) 
6.19

>  <n_measurements>  (214) 
1.0

>  <murcko_scaffold>  (214) 
c1ccc(C2CC2)cc1

>  <scaffold_id>  (214) 
S003

>  <cluster_id>  (214) 
C003

$$$$
DPC0215
     RDKit          2D

 15 16  0  0  0  0  0  0  0  0999 V2000
    3.7500   -1.2990    0.0000 N   0  0  0  0  0  0  0  0  0  0  0  0
    3.0000    0.0000    0.0000 C   0  0  0  0  0  0  0  0  0  0  0  0
    3.7500    1.2990    0.0000 O   0  0  0  0  0  0  0  0  0  0  0  0
    1.5000    0.0000    0.0000 C   0  0  0  0  0  0  0  0  0  0  0  0
    0.7500   -1.2990    0.0000 C   0  0  0  0  0  0  0  0  0  0  0  0
   -0.7500   -1.2990    0.0000 C   0  0  0  0  0  0  0  0  0  0  0  0
   -1.5000    0.0000    0.0000 C   0  0  0  0  0  0  0  0  0  0  0  0
   -3.0000    0.0000    0.0000 C   0  0  0  0  0  0  0  0  0  0  0  0
   -3.7500    1.2990    0.0000 C   0  0  0  0  0  0  0  0  0  0  0  0
   -5.2500    1.2990    0.0000 C   0  0  0  0  0  0  0  0  0  0  0  0
   -6.0000    0.0000    0.0000 C   0  0  0  0  0  0  0  0  0  0  0  0
   -5.2500   -1.2990    0.0000 C   0  0  0  0  0  0  0  0  0  0  0  0
   -3.7500   -1.2990    0.0000 C   0  0  0  0  0  0  0  0  0  0  0  0
   -0.7500    1.2990    0.0000 C   0  0  0  0  0  0  0  0  0  0  0  0
    0.7500    1.2990    0.0000 C   0  0  0  0  0  0  0  0  0  0  0  0
  1  2  1  0
  2  3  2  0
  2  4  1  0
  4  5  1  0
  5  6  2  0
  6  7  1  0
  7  8  1  0
  8  9  1  0
  9 10  1  0
 10 11  1  0
 11 12  1  0
 12 13  1  0
  7 14  2  0
 14 15  1  0
 15  4  2  0
 13  8  1  0
M  END
>  <compound_id>  (215) 
DPC0215

>  <smiles>  (215) 
NC(=O)c1ccc(C2CCCCC2)cc1

>  <patent_id>  (215) 
DEMO-104-A1

>  <assignee>  (215) 
Mosaic Medicines

>  <publication_date>  (215) 
2024-11-21

>  <year>  (215) 
2024

>  <series>  (215) 
phenyl

>  <assay_id>  (215) 
ASSAY-04-12

>  <standard_relation>  (215) 
=

>  <pIC50>  (215) 
6.43

>  <project_note>  (215) 
primary measurement

>  <source_row>  (215) 
215

>  <status>  (215) 
accepted

>  <duplicate_group_size>  (215) 
1

>  <source_rows>  (215) 
215

>  <patent_ids>  (215) 
DEMO-104-A1

>  <assignees>  (215) 
Mosaic Medicines

>  <molecular_weight>  (215) 
203.285

>  <clogp>  (215) 
2.833

>  <tpsa>  (215) 
43.09

>  <hbd>  (215) 
1

>  <hba>  (215) 
1

>  <rotatable_bonds>  (215) 
2

>  <heavy_atoms>  (215) 
15

>  <rings>  (215) 
2

>  <pIC50_median>  (215) 
6.43

>  <n_measurements>  (215) 
1.0

>  <murcko_scaffold>  (215) 
c1ccc(C2CCCCC2)cc1

>  <scaffold_id>  (215) 
S004

>  <cluster_id>  (215) 
C025

$$$$
DPC0216
     RDKit          2D

 10 10  0  0  0  0  0  0  0  0999 V2000
    3.7500   -1.2990    0.0000 N   0  0  0  0  0  0  0  0  0  0  0  0
    3.0000    0.0000    0.0000 C   0  0  0  0  0  0  0  0  0  0  0  0
    3.7500    1.2990    0.0000 O   0  0  0  0  0  0  0  0  0  0  0  0
    1.5000    0.0000    0.0000 C   0  0  0  0  0  0  0  0  0  0  0  0
    0.7500   -1.2990    0.0000 C   0  0  0  0  0  0  0  0  0  0  0  0
   -0.7500   -1.2990    0.0000 C   0  0  0  0  0  0  0  0  0  0  0  0
   -1.5000    0.0000    0.0000 C   0  0  0  0  0  0  0  0  0  0  0  0
   -3.0000    0.0000    0.0000 O   0  0  0  0  0  0  0  0  0  0  0  0
   -0.7500    1.2990    0.0000 C   0  0  0  0  0  0  0  0  0  0  0  0
    0.7500    1.2990    0.0000 C   0  0  0  0  0  0  0  0  0  0  0  0
  1  2  1  0
  2  3  2  0
  2  4  1  0
  4  5  1  0
  5  6  2  0
  6  7  1  0
  7  8  1  0
  7  9  2  0
  9 10  1  0
 10  4  2  0
M  END
>  <compound_id>  (216) 
DPC0216

>  <smiles>  (216) 
NC(=O)c1ccc(O)cc1

>  <patent_id>  (216) 
DEMO-104-A1

>  <assignee>  (216) 
Mosaic Medicines

>  <publication_date>  (216) 
2024-11-21

>  <year>  (216) 
2024

>  <series>  (216) 
phenyl

>  <assay_id>  (216) 
ASSAY-04-01

>  <standard_relation>  (216) 
=

>  <pIC50>  (216) 
6.35

>  <project_note>  (216) 
primary measurement

>  <source_row>  (216) 
216

>  <status>  (216) 
accepted

>  <duplicate_group_size>  (216) 
1

>  <source_rows>  (216) 
216

>  <patent_ids>  (216) 
DEMO-104-A1

>  <assignees>  (216) 
Mosaic Medicines

>  <molecular_weight>  (216) 
137.138

>  <clogp>  (216) 
0.491

>  <tpsa>  (216) 
63.32

>  <hbd>  (216) 
2

>  <hba>  (216) 
2

>  <rotatable_bonds>  (216) 
1

>  <heavy_atoms>  (216) 
10

>  <rings>  (216) 
1

>  <pIC50_median>  (216) 
6.35

>  <n_measurements>  (216) 
1.0

>  <murcko_scaffold>  (216) 
c1ccccc1

>  <scaffold_id>  (216) 
S001

>  <cluster_id>  (216) 
C003

$$$$
